*****************************************************************
* INFINEON technologies                                         *
* RF & Discrete Semiconductors                                  *
* PIN  DIODE SPICE ( DIODE CHIP ONLY )                          *
*                                                               *
* Version:  1.1                                                 *
* Date:     November 1999                                       *
*****************************************************************
.model D310 D(Is=60E-18 N=1.02 Rs=.45 Xti=3 Eg=1.11 Cjo=.19p
+ M=.15 Vj=.25 Fc=.5 Bv=50 Ibv=5u Tt=75n)
*****************************************************************
