.model TN4036   PNP(Is=12.27p Xti=3 Eg=1.11 Vaf=100 Bf=82.34 Ne=1.515
+               Ise=12.27p Ikf=.9931 Xtb=1.5 Br=1.311 Nc=2 Isc=0 Ikr=0 Rc=.6
+               Cjc=48.28p Mjc=.5615 Vjc=.75 Fc=.5 Cje=106.7p Mje=.5168 Vje=.75
+               Tr=501.2n Tf=865.7p Itf=.2 Vtf=2 Xtf=.8 Rb=10)
*               National        pid=67          case=TO237
*               88-09-09 bam    creation
