*INCLUDE DGMOS.LIB
.TRAN .05N 20N
.AC DEC 10 100K 1000MEG
