*INCLUDE DGMOS.LIB
.TRAN .1N 1000N 800N
*INCLUDE DEVICE.LIB
