* TLC2264 OPERATIONAL AMPLIFIER "MACROMODEL" SUBCIRCUIT
* CREATED USING PARTS RELEASE 4.03 ON 07/19/93 AT 12:25
* REV (N/A)  SUPPLY VOLTAGE: +/-5V
* CONNECTIONS:   NON-INVERTING INPUT
*                | INVERTING INPUT
*                | | POSITIVE POWER SUPPLY
*                | | | NEGATIVE POWER SUPPLY
*                | | | | OUTPUT
*                | | | | |
.SUBCKT TLC2264-102  1 2 3 4 5
*
  C1   11 12 3.073E-12
  C2    6  7 15.00E-12
  CPSR 85 86 159E-9
  DCM+ 81 82 DX
  DCM- 83 81 DX
  DC    5 53 DX
  DE   54  5 DX
  DLP  90 91 DX
  DLN  92 90 DX
  DP    4  3 DX
  ECMR 84 99 (2,99) 1
  EGND 99  0 POLY(2) (3,0) (4,0) 0 .5 .5
  EPSR 85 0 POLY(1) (3,4) -178E-6 17.8E-6
  ENSE 89 2 POLY(1) (88,0) 300E-6 1
  FB 7 99 POLY(6) VB VC VE VLP VLN VPSR 0 17.59E6 -20E6 20E6 20E6 -20E6 16E6
  GA    6  0 11 12 51.84E-6
  GCM 0  6 10 99 4.12E-9
  GPSR 85 86 (85,86) 100E-6
  GRD1 60 11 (60,11) 5.186E-5
  GRD2 60 12 (60,12) 5.186E-5
  HLIM 90  0 VLIM 1K
  HCMR 80 1 POLY(2) VCMP VCMN 0 1E2 1E2
  IRP 3 4 212.4E-6
  ISS   3 10 DC 8.250E-6
  IIO 2 0 .5E-12
  I1 88 0 1E-21
  J1   11  89 10 JX
  J2   12  80 10 JX
  R2    6  9 100.0E3
  RCM 84 81 1K
  RN1 88 0 100
  RO1   8  5 110
  RO2   7 99 110
  RSS  10 99 24.24E6
  VAD  60 4 -.6
  VCMP 82 99 3.7
  VCMN 83 99 -4.8
  VB    9  0 DC 0
  VC 3 53 DC .65
  VE   54  4 DC .65
  VLIM  7  8 DC 0
  VLP  91  0 DC .5
  VLN 0 92 DC 9.4
  VPSR 0 86 DC 0
.MODEL DX D(IS=800.0E-18)
.MODEL JX PJF(IS=500.0E-15 BETA=651.4E-6 VTO=-.015 KF=2E-17)
.ENDS
