* TLV2721, TLV2721Y Macro Models
* From Texas Instruments data sheet

.SUBCKT TLV2721 1 2 3 4 5
C1 11 12 12.53E-12
C2 6 7 50.00E-12
DC 5 53 DX
DE 54 5 DX
DLP 90 91 DX
DLN 92 90 DX
DP 4 3 DX
EGND 99 0 POLY (2) (3,0) (4,0) 0 .5 .5
FB 7 99 POLY (5) VB VC VE VLP VLN 0 893.6E3 -90E3 90E3 90E3 -90E3
GA 6 0 11 12 94.25E-6
GCM 0 6 10 99 9.300E-9
ISS 3 10 DC 9.000E-6
HLIM 90 0 VLIM 1K
J1 11 2 10 JX
J2 12 1 10 JX
R2 6 9 100.0E3
RD1 60 11 10.61E3
RD2 60 12 10.61E3
R01 8 5 35
R02 7 99 35
RP 3 4 49.50E3
RSS 10 99 22.22E6
VAD 60 4 -.5
VB 9 0 DC 0
VC 3 53 DC .666
VE 54 4 DC .666
VLIM 7 8 DC 0
VLP 91 0 DC 3.4
VLN 0 92 DC 11.4
.MODEL DX D (IS=800.0E-18)
.MODEL JX PJF (IS=500.0E-15 BETA=1.527E-3 VTO=-.001)
.ENDS

.ALIAS TLV2721Y TLV2721 SUBCKT

