* TLV2442, TLV2442A, TLV2442Y Macro Models
* From Texas Instruments data sheet

.SUBCKT TLV2442 1 2 3 4 5
C1 11 12 14E-12
C2 6 7 60.00E-12
DC 5 53 DX
DE 54 5 DX
DLP 90 91 DX
DLN 92 90 DX
DP 4 3 DX
EGND 99 0 POLY (2) (3,0) (4,) 0 .5 .5
FB 99 0 POLY (5) VB VC VE VLP VLN 0 984.9E3 -1E6 1E6 1E6 -1E6
GA 6 0 11 12 377.0E-6
GCM 0 6 10 99 134E-9
ISS 3 10 DC 216.OE-6
HLIM 90 0 VLIM 1K
J1 11 2 10 JX
J2 12 1 10 JX
R2 6 9 100.OE3
RD1 60 11 2.653E3
RD2 60 12 2.653E3
R01 8 5 50
R02 7 99 50
RP 3 4 4.310E3
RSS 10 99 925.9E3
VAD 60 4 -.5
VB 9 0 DC 0
VC 3 53 DC .78
VE 54 4 DC .78
VLIM 7 8 DC 0
VLP 91 0 DC 1.9
VLN 0 92 DC 9.4
.MODEL DX D (IS=800.0E-18)
.MODEL JX PJF (IS=1.500E-12BETA=1.316E-3 VTO=-.270)
.ENDS

.ALIAS TLV2442A TLV2442 SUBCKT
.ALIAS TLV2442Y TLV2442 SUBCKT
