* TLV2731, TLV2731Y Macro Models
* From Texas Instruments data sheet

.SUBCKT TLV2731 1 2 3 4 5
C1 11 12 13.51E-12
C2 6 7 50.00E-12
DC 5 53 DX
DE 54 5 DX
DLP 90 91 DX
DLN 92 90 DX
DP 4 3 DX
EGND 99 0 POLY (2) (3,0) (4,0) 0 .5 .5
FB 7 99 POLY (5) VB VC VE VLP VLN 0 90.83E3 -10E3 10E3 10E3 -10E3
GA 6 0 11 12 314.2E-6
GCM 0 6 10 99 242.35E-9
ISS 3 10 DC 87.00E-6
HLIM 90 0 VLIM 1K
J1 11 2 10 JX
J2 12 1 10 JX
R2 6 9 100.0E3
RD1 60 11 3.183E3
RD2 60 12 3.183E3
R01 8 5 25
R02 7 99 25
RP 3 4 6.553E3
RSS 10 99 2.500E6
VAD 60 4 -.5
VB 9 0 DC 0
VC 3 53 DC .795
VE 54 4 DC .795
VLIM 7 8 DC 0
VLP 91 0 DC 12.4
VLN 0 92 DC 17.4
.MODEL DX D (IS=800.0E-18)
.MODEL JX PJF (IS=500.0E-15 BETA=2.939E-3 VTO=-.065)
.ENDS

.ALIAS TLV2731Y TLV2731 SUBCKT
