* TLV2711, TLV2711Y Macro model
* From Texas Instruments Data sheet


.SUBCKT TLV2711 1 2 3 4 5
C1 11 12 8.86E-12
C2 6 7 50.00E-12
DC 5 53 DX
DE 54 5 DX
DLP 90 91 DX
DLN 92 90 DX
DP 4 3 DX
EGND 99 0 POLY (2) (3,0) (4,0) 0 .5 .5
FB 7 99 POLY (5) VB VC VE VLP VLN 0 4.29E6 -6E6 6E6 6E6 -6E6
GA 6 0 11 12 9.425E-6
GCM 0 6 10 99 1320.2E-12
ISS 3 10 DC 1.250E-6
HLIM 90 0 VLIM 1K
J1 11 2 10 JX
J2 12 1 10 JX
R2 6 9 100.0E3
RD1 60 11 106.1E3
RD2 60 12 106.1E3
R01 8 5 50
R02 7 99 150
RP 3 4 419.2E3
RSS 10 99 160.0E6
VAD 60 4 -.5
VB 9 0 DC 0
VC 3 53 DC .55
VE 54 4 DC .55
VLIM 7 8 DC 0
VLP 91 0 DC 0.1
VLN 0 92 DC 2.6
.MODEL DX D (IS=800.0E-18)
.MODEL JX PJF (IS=500.0E-15 BETA=166E-6 VTO=-.004)
.ENDS

.ALIAS TLV2711Y TLV2711 SUBCKT
