.model PN3641   NPN(Is=14.34f Xti=3 Eg=1.11 Vaf=74.03 Bf=118.6 Ne=1.236
+               Ise=14.34f Ikf=.2524 Xtb=1.5 Br=7.134 Nc=2 Isc=0 Ikr=0 Rc=1
+               Cjc=7.306p Mjc=.3416 Vjc=.75 Fc=.5 Cje=22.01p Mje=.377 Vje=.75
+               Tr=50.96n Tf=410.3p Itf=.6 Vtf=1.7 Xtf=3 Rb=10)
*               National        pid=19          case=TO92
*               88-09-07 bam    creation
