.model PN4274   NPN(Is=44.14f Xti=3 Eg=1.11 Vaf=100 Bf=73.62 Ne=1.389
+               Ise=97.82f Ikf=.3498 Xtb=1.5 Br=12.84m Nc=2 Isc=0 Ikr=0 Rc=.6
+               Cjc=2.83p Mjc=86.19m Vjc=.75 Fc=.5 Cje=4.5p Mje=.2418 Vje=.75
+               Tr=1.079u Tf=227.6p Itf=.3 Vtf=4 Xtf=4 Rb=10)
*               National        pid=21          case=TO92
*               88-09-07 bam    creation
