.model PN4248   PNP(Is=6.734f Xti=3 Eg=1.11 Vaf=45.7 Bf=122.3 Ne=1.635
+               Ise=6.734f Ikf=.1759 Xtb=1.5 Br=2.843 Nc=2 Isc=0 Ikr=0 Rc=1.67
+               Cjc=6.2p Mjc=.301 Vjc=.75 Fc=.5 Cje=7.5p Mje=.2861 Vje=.75
+               Tr=10.95n Tf=467.3p Itf=.17 Vtf=5 Xtf=8 Rb=10)
*               National        pid=62          case=TO92
*               88-09-08 bam    creation
