.model PN4355   PNP(Is=12.27p Xti=3 Eg=1.11 Vaf=100 Bf=194.8 Ne=1.649
+               Ise=12.27p Ikf=1.123 Xtb=1.5 Br=1.184 Nc=2 Isc=0 Ikr=0 Rc=.6
+               Cjc=48.28p Mjc=.5615 Vjc=.75 Fc=.5 Cje=106.7p Mje=.5168 Vje=.75
+               Tr=474.5n Tf=867p Itf=.2 Vtf=2 Xtf=.8 Rb=10)
*               Fairchild        pid=67          case=TO92
*               88-09-09 bam    creation
