.model PN5128   NPN(Is=14.34f Xti=3 Eg=1.11 Vaf=74.03 Bf=158.3 Ne=1.263
+               Ise=14.34f Ikf=.2644 Xtb=1.5 Br=6.584 Nc=2 Isc=0 Ikr=0 Rc=1
+               Cjc=9.393p Mjc=.3416 Vjc=.75 Fc=.5 Cje=22.01p Mje=.377 Vje=.75
+               Tr=48.87n Tf=409.5p Itf=.6 Vtf=1.7 Xtf=3 Rb=10)
*               National        pid=19          case=TO92
*               88-09-07 bam    creation
