.model PN5137   NPN(Is=14.34f Xti=3 Eg=1.11 Vaf=74.03 Bf=134.2 Ne=1.248
+               Ise=14.34f Ikf=.2571 Xtb=1.5 Br=6.865 Nc=2 Isc=0 Ikr=0 Rc=1
+               Cjc=9.393p Mjc=.3416 Vjc=.75 Fc=.5 Cje=22.01p Mje=.377 Vje=.75
+               Tr=49.95n Tf=409.4p Itf=.6 Vtf=1.7 Xtf=3 Rb=10)
*               National        pid=19          case=TO92
*               88-09-07 bam    creation
