.model PN5135   NPN(Is=14.34f Xti=3 Eg=1.11 Vaf=74.03 Bf=92.53 Ne=1.211
+               Ise=14.34f Ikf=.2396 Xtb=1.5 Br=8.013 Nc=2 Isc=0 Ikr=0 Rc=1
+               Cjc=9.393p Mjc=.3416 Vjc=.75 Fc=.5 Cje=22.01p Mje=.377 Vje=.75
+               Tr=53.89n Tf=408.9p Itf=.6 Vtf=1.7 Xtf=3 Rb=10)
*               National        pid=19          case=TO92
*               88-09-07 bam    creation
