.model 2N3414   NPN(Is=14.34f Xti=3 Eg=1.11 Vaf=74.03 Bf=184.4 Ne=1.277
+               Ise=14.34f Ikf=.2714 Xtb=1.5 Br=6.386 Nc=2 Isc=0 Ikr=0 Rc=1
+               Cjc=9.393p Mjc=.3416 Vjc=.75 Fc=.5 Cje=22.01p Mje=.377 Vje=.75
+               Tr=48.09n Tf=409.7p Itf=.6 Vtf=1.7 Xtf=3 Rb=10)
*               National        pid=19          case=TO92
*               88-09-07 bam    creation
