.model 2N3707   NPN(Is=5.911f Xti=3 Eg=1.11 Vaf=62.37 Bf=535.1 Ne=1.311
+               Ise=5.911f Ikf=13.31m Xtb=1.5 Br=1.321 Nc=2 Isc=0 Ikr=0 Rc=1.61
+               Cjc=4.017p Mjc=.3174 Vjc=.75 Fc=.5 Cje=4.973p Mje=.4146 Vje=.75
+               Tr=4.708n Tf=819.6p Itf=.35 Vtf=4 Xtf=7 Rb=10)
*               National        pid=07          case=TO92
*               88-09-07 bam    creation
