.model 2N3903   NPN(Is=6.734f Xti=3 Eg=1.11 Vaf=74.03 Bf=335.2 Ne=1.208
+               Ise=6.734f Ikf=60.26m Xtb=1.5 Br=.8073 Nc=2 Isc=0 Ikr=0 Rc=1
+               Cjc=3.638p Mjc=.3085 Vjc=.75 Fc=.5 Cje=4.493p Mje=.2593 Vje=.75
+               Tr=243.9n Tf=300.8p Itf=.4 Vtf=4 Xtf=2 Rb=10)
*               Fairchild        pid=23          case=TO92
*               88-09-08 bam    creation
