.model 2N4289   PNP(Is=6.734f Xti=3 Eg=1.11 Vaf=45.7 Bf=278.4 Ne=1.755
+               Ise=6.734f Ikf=.1985 Xtb=1.5 Br=2.671 Nc=2 Isc=0 Ikr=0 Rc=1.67
+               Cjc=6.2p Mjc=.301 Vjc=.75 Fc=.5 Cje=7.5p Mje=.2861 Vje=.75
+               Tr=10.04n Tf=467.8p Itf=.17 Vtf=5 Xtf=8 Rb=10)
*               National        pid=62          case=TO92
*               88-09-08 bam    creation
