.model 2N5830   NPN(Is=2.511f Xti=3 Eg=1.11 Vaf=100 Bf=325.3 Ne=1.272
+               Ise=2.511f Ikf=.3563 Xtb=1.5 Br=3.102 Nc=2 Isc=0 Ikr=0 Rc=1
+               Cjc=4.883p Mjc=.3047 Vjc=.75 Fc=.5 Cje=18.79p Mje=.3416 Vje=.75
+               Tr=1.186n Tf=560.3p Itf=50m Vtf=5 Xtf=8 Rb=10)
*               Fairchild        pid=16          case=TO92
*               88-09-07 bam    creation
