.model 1N4151  D(Is=0.1p Rs=3 CJO=1p Tt=3n Bv=100 Ibv=0.1p)
*          85-??-??   Original library
