******************************************************************************************************************************************
Note:  The following SPICE model is for the transistor element.
When applying this SPICE model to your circuit simulation be certain
to add R1 and/or R2 values per the table found on sheet 1 of the data
sheet.  Allow +/- 30% resistance tolerance and +/- 20% for R2/R1 ratio 
tolerance.

*SRC=DCX114EH;DI_DCX114EH;BJTs PNP; Si;  50.0V  0.150A  200MHz   Diodes Inc. PBTs
.MODEL DI_DCX114EH  NPN (IS=9.98f NF=1.00 BF=766 VAF=127
+ IKF=54.7m ISE=2.14p NE=2.00 BR=4.00 NR=1.00
+ VAR=24.0 IKR=0.135 RE=0.815 RB=3.26 RC=0.326
+ XTB=1.5 CJE=20.7p VJE=1.10 MJE=0.500 CJC=11.4p VJC=0.300
+ MJC=0.300 TF=567p TR=119n EG=1.12 )
********************************************************************************************************************************
***************************************************************************************************************************************
Note:  The following SPICE model is for the transistor element.
When applying this SPICE model to your circuit simulation be certain
to add R1 and/or R2 values per the table found on sheet 1 of the data
sheet.  Allow +/- 30% resistance tolerance and +/- 20% for R2/R1 ratio
tolerance.

*SRC=DCX114EH;DI_DCX114EH;BJTs NPN; Si;  50.0V  0.150A  200MHz   Diodes Inc. PBTs
.MODEL DI_DCX114EH  NPN (IS=16.8f NF=1.00 BF=766 VAF=127
+ IKF=91.1m ISE=3.59p NE=2.00 BR=4.00 NR=1.00
+ VAR=28.0 IKR=0.225 RE=0.665 RB=2.66 RC=0.266
+ XTB=1.5 CJE=11.3p VJE=1.10 MJE=0.500 CJC=4.50p VJC=0.300
+ MJC=0.300 TF=549p TR=119n EG=1.12 )*********

******************************************************************************************************************************************
Note:  The following SPICE model is for the transistor element.
When applying this SPICE model to your circuit simulation be certain
to add R1 and/or R2 values per the table found on sheet 1 of the data
sheet.  Allow +/- 30% resistance tolerance and +/- 20% for R2/R1 ratio 
tolerance.

*SRC=DCX114EK;DI_DCX114EK;BJTs PNP; Si;  50.0V  0.150A  200MHz   Diodes Inc. PBTs
.MODEL DI_DCX114EK  NPN (IS=9.98f NF=1.00 BF=766 VAF=127
+ IKF=54.7m ISE=2.14p NE=2.00 BR=4.00 NR=1.00
+ VAR=24.0 IKR=0.135 RE=0.815 RB=3.26 RC=0.326
+ XTB=1.5 CJE=20.7p VJE=1.10 MJE=0.500 CJC=11.4p VJC=0.300
+ MJC=0.300 TF=567p TR=119n EG=1.12 )
********************************************************************************************************************************
***************************************************************************************************************************************
Note:  The following SPICE model is for the transistor element.
When applying this SPICE model to your circuit simulation be certain
to add R1 and/or R2 values per the table found on sheet 1 of the data
sheet.  Allow +/- 30% resistance tolerance and +/- 20% for R2/R1 ratio
tolerance.

*SRC=DCX114EK;DI_DCX114EK;BJTs NPN; Si;  50.0V  0.150A  200MHz   Diodes Inc. PBTs
.MODEL DI_DCX114EK  NPN (IS=16.8f NF=1.00 BF=766 VAF=127
+ IKF=91.1m ISE=3.59p NE=2.00 BR=4.00 NR=1.00
+ VAR=28.0 IKR=0.225 RE=0.665 RB=2.66 RC=0.266
+ XTB=1.5 CJE=11.3p VJE=1.10 MJE=0.500 CJC=4.50p VJC=0.300
+ MJC=0.300 TF=549p TR=119n EG=1.12 )*********

******************************************************************************************************************************************
Note:  The following SPICE model is for the transistor element.
When applying this SPICE model to your circuit simulation be certain
to add R1 and/or R2 values per the table found on sheet 1 of the data
sheet.  Allow +/- 30% resistance tolerance and +/- 20% for R2/R1 ratio 
tolerance.

*SRC=DCX123JU;DI_DCX123JU;BJTs PNP; Si;  50.0V  0.150A  200MHz   Diodes Inc. PBTs
.MODEL DI_DCX123JU  NPN (IS=9.98f NF=1.00 BF=766 VAF=127
+ IKF=54.7m ISE=2.14p NE=2.00 BR=4.00 NR=1.00
+ VAR=24.0 IKR=0.135 RE=0.815 RB=3.26 RC=0.326
+ XTB=1.5 CJE=20.7p VJE=1.10 MJE=0.500 CJC=11.4p VJC=0.300
+ MJC=0.300 TF=567p TR=119n EG=1.12 )
********************************************************************************************************************************
***************************************************************************************************************************************
Note:  The following SPICE model is for the transistor element.
When applying this SPICE model to your circuit simulation be certain
to add R1 and/or R2 values per the table found on sheet 1 of the data
sheet.  Allow +/- 30% resistance tolerance and +/- 20% for R2/R1 ratio
tolerance.

*SRC=DCX123JU;DI_DCX123JU;BJTs NPN; Si;  50.0V  0.150A  200MHz   Diodes Inc. PBTs
.MODEL DI_DCX123JU  NPN (IS=16.8f NF=1.00 BF=766 VAF=127
+ IKF=91.1m ISE=3.59p NE=2.00 BR=4.00 NR=1.00
+ VAR=28.0 IKR=0.225 RE=0.665 RB=2.66 RC=0.266
+ XTB=1.5 CJE=11.3p VJE=1.10 MJE=0.500 CJC=4.50p VJC=0.300
+ MJC=0.300 TF=549p TR=119n EG=1.12 )*********

******************************************************************************************************************************************
Note:  The following SPICE model is for the transistor element.
When applying this SPICE model to your circuit simulation be certain
to add R1 and/or R2 values per the table found on sheet 1 of the data
sheet.  Allow +/- 30% resistance tolerance and +/- 20% for R2/R1 ratio 
tolerance.

*SRC=DCX114TH;DI_DCX114TH;BJTs PNP; Si;  50.0V  0.150A  200MHz   Diodes Inc. PBTs
.MODEL DI_DCX114TH  NPN (IS=9.98f NF=1.00 BF=766 VAF=127
+ IKF=54.7m ISE=2.14p NE=2.00 BR=4.00 NR=1.00
+ VAR=24.0 IKR=0.135 RE=0.815 RB=3.26 RC=0.326
+ XTB=1.5 CJE=20.7p VJE=1.10 MJE=0.500 CJC=11.4p VJC=0.300
+ MJC=0.300 TF=567p TR=119n EG=1.12 )
********************************************************************************************************************************
***************************************************************************************************************************************
Note:  The following SPICE model is for the transistor element.
When applying this SPICE model to your circuit simulation be certain
to add R1 and/or R2 values per the table found on sheet 1 of the data
sheet.  Allow +/- 30% resistance tolerance and +/- 20% for R2/R1 ratio
tolerance.

*SRC=DCX114TH;DI_DCX114TH;BJTs NPN; Si;  50.0V  0.150A  200MHz   Diodes Inc. PBTs
.MODEL DI_DCX114TH  NPN (IS=16.8f NF=1.00 BF=766 VAF=127
+ IKF=91.1m ISE=3.59p NE=2.00 BR=4.00 NR=1.00
+ VAR=28.0 IKR=0.225 RE=0.665 RB=2.66 RC=0.266
+ XTB=1.5 CJE=11.3p VJE=1.10 MJE=0.500 CJC=4.50p VJC=0.300
+ MJC=0.300 TF=549p TR=119n EG=1.12 )*********

******************************************************************************************************************************************
Note:  The following SPICE model is for the transistor element.
When applying this SPICE model to your circuit simulation be certain
to add R1 and/or R2 values per the table found on sheet 1 of the data
sheet.  Allow +/- 30% resistance tolerance and +/- 20% for R2/R1 ratio 
tolerance.

*SRC=DCX114TK;DI_DCX114TK;BJTs PNP; Si;  50.0V  0.150A  200MHz   Diodes Inc. PBTs
.MODEL DI_DCX114TK  NPN (IS=9.98f NF=1.00 BF=766 VAF=127
+ IKF=54.7m ISE=2.14p NE=2.00 BR=4.00 NR=1.00
+ VAR=24.0 IKR=0.135 RE=0.815 RB=3.26 RC=0.326
+ XTB=1.5 CJE=20.7p VJE=1.10 MJE=0.500 CJC=11.4p VJC=0.300
+ MJC=0.300 TF=567p TR=119n EG=1.12 )
********************************************************************************************************************************
***************************************************************************************************************************************
Note:  The following SPICE model is for the transistor element.
When applying this SPICE model to your circuit simulation be certain
to add R1 and/or R2 values per the table found on sheet 1 of the data
sheet.  Allow +/- 30% resistance tolerance and +/- 20% for R2/R1 ratio
tolerance.

*SRC=DCX114TK;DI_DCX114TK;BJTs NPN; Si;  50.0V  0.150A  200MHz   Diodes Inc. PBTs
.MODEL DI_DCX114TK  NPN (IS=16.8f NF=1.00 BF=766 VAF=127
+ IKF=91.1m ISE=3.59p NE=2.00 BR=4.00 NR=1.00
+ VAR=28.0 IKR=0.225 RE=0.665 RB=2.66 RC=0.266
+ XTB=1.5 CJE=11.3p VJE=1.10 MJE=0.500 CJC=4.50p VJC=0.300
+ MJC=0.300 TF=549p TR=119n EG=1.12 )*********

******************************************************************************************************************************************
Note:  The following SPICE model is for the transistor element.
When applying this SPICE model to your circuit simulation be certain
to add R1 and/or R2 values per the table found on sheet 1 of the data
sheet.  Allow +/- 30% resistance tolerance and +/- 20% for R2/R1 ratio 
tolerance.

*SRC=DCX114TU;DI_DCX114TU;BJTs PNP; Si;  50.0V  0.150A  200MHz   Diodes Inc. PBTs
.MODEL DI_DCX114TU  NPN (IS=9.98f NF=1.00 BF=766 VAF=127
+ IKF=54.7m ISE=2.14p NE=2.00 BR=4.00 NR=1.00
+ VAR=24.0 IKR=0.135 RE=0.815 RB=3.26 RC=0.326
+ XTB=1.5 CJE=20.7p VJE=1.10 MJE=0.500 CJC=11.4p VJC=0.300
+ MJC=0.300 TF=567p TR=119n EG=1.12 )
********************************************************************************************************************************
***************************************************************************************************************************************
Note:  The following SPICE model is for the transistor element.
When applying this SPICE model to your circuit simulation be certain
to add R1 and/or R2 values per the table found on sheet 1 of the data
sheet.  Allow +/- 30% resistance tolerance and +/- 20% for R2/R1 ratio
tolerance.

*SRC=DCX114TU;DI_DCX114TU;BJTs NPN; Si;  50.0V  0.150A  200MHz   Diodes Inc. PBTs
.MODEL DI_DCX114TU  NPN (IS=16.8f NF=1.00 BF=766 VAF=127
+ IKF=91.1m ISE=3.59p NE=2.00 BR=4.00 NR=1.00
+ VAR=28.0 IKR=0.225 RE=0.665 RB=2.66 RC=0.266
+ XTB=1.5 CJE=11.3p VJE=1.10 MJE=0.500 CJC=4.50p VJC=0.300
+ MJC=0.300 TF=549p TR=119n EG=1.12 )*********

******************************************************************************************************************************************
Note:  The following SPICE model is for the transistor element.
When applying this SPICE model to your circuit simulation be certain
to add R1 and/or R2 values per the table found on sheet 1 of the data
sheet.  Allow +/- 30% resistance tolerance and +/- 20% for R2/R1 ratio 
tolerance.

*SRC=DCX114YH;DI_DCX114YH;BJTs PNP; Si;  50.0V  0.150A  200MHz   Diodes Inc. PBTs
.MODEL DI_DCX114YH  NPN (IS=9.98f NF=1.00 BF=766 VAF=127
+ IKF=54.7m ISE=2.14p NE=2.00 BR=4.00 NR=1.00
+ VAR=24.0 IKR=0.135 RE=0.815 RB=3.26 RC=0.326
+ XTB=1.5 CJE=20.7p VJE=1.10 MJE=0.500 CJC=11.4p VJC=0.300
+ MJC=0.300 TF=567p TR=119n EG=1.12 )
********************************************************************************************************************************
***************************************************************************************************************************************
Note:  The following SPICE model is for the transistor element.
When applying this SPICE model to your circuit simulation be certain
to add R1 and/or R2 values per the table found on sheet 1 of the data
sheet.  Allow +/- 30% resistance tolerance and +/- 20% for R2/R1 ratio
tolerance.

*SRC=DCX114YH;DI_DCX114YH;BJTs NPN; Si;  50.0V  0.150A  200MHz   Diodes Inc. PBTs
.MODEL DI_DCX114YH  NPN (IS=16.8f NF=1.00 BF=766 VAF=127
+ IKF=91.1m ISE=3.59p NE=2.00 BR=4.00 NR=1.00
+ VAR=28.0 IKR=0.225 RE=0.665 RB=2.66 RC=0.266
+ XTB=1.5 CJE=11.3p VJE=1.10 MJE=0.500 CJC=4.50p VJC=0.300
+ MJC=0.300 TF=549p TR=119n EG=1.12 )*********

******************************************************************************************************************************************
Note:  The following SPICE model is for the transistor element.
When applying this SPICE model to your circuit simulation be certain
to add R1 and/or R2 values per the table found on sheet 1 of the data
sheet.  Allow +/- 30% resistance tolerance and +/- 20% for R2/R1 ratio 
tolerance.

*SRC=DCX114YK;DI_DCX114YK;BJTs PNP; Si;  50.0V  0.150A  200MHz   Diodes Inc. PBTs
.MODEL DI_DCX114YK  NPN (IS=9.98f NF=1.00 BF=766 VAF=127
+ IKF=54.7m ISE=2.14p NE=2.00 BR=4.00 NR=1.00
+ VAR=24.0 IKR=0.135 RE=0.815 RB=3.26 RC=0.326
+ XTB=1.5 CJE=20.7p VJE=1.10 MJE=0.500 CJC=11.4p VJC=0.300
+ MJC=0.300 TF=567p TR=119n EG=1.12 )
********************************************************************************************************************************
***************************************************************************************************************************************
Note:  The following SPICE model is for the transistor element.
When applying this SPICE model to your circuit simulation be certain
to add R1 and/or R2 values per the table found on sheet 1 of the data
sheet.  Allow +/- 30% resistance tolerance and +/- 20% for R2/R1 ratio
tolerance.

*SRC=DCX114YK;DI_DCX114YK;BJTs NPN; Si;  50.0V  0.150A  200MHz   Diodes Inc. PBTs
.MODEL DI_DCX114YK  NPN (IS=16.8f NF=1.00 BF=766 VAF=127
+ IKF=91.1m ISE=3.59p NE=2.00 BR=4.00 NR=1.00
+ VAR=28.0 IKR=0.225 RE=0.665 RB=2.66 RC=0.266
+ XTB=1.5 CJE=11.3p VJE=1.10 MJE=0.500 CJC=4.50p VJC=0.300
+ MJC=0.300 TF=549p TR=119n EG=1.12 )*********

******************************************************************************************************************************************
Note:  The following SPICE model is for the transistor element.
When applying this SPICE model to your circuit simulation be certain
to add R1 and/or R2 values per the table found on sheet 1 of the data
sheet.  Allow +/- 30% resistance tolerance and +/- 20% for R2/R1 ratio 
tolerance.

*SRC=DCX114YU;DI_DCX114YU;BJTs PNP; Si;  50.0V  0.150A  200MHz   Diodes Inc. PBTs
.MODEL DI_DCX114YU  NPN (IS=9.98f NF=1.00 BF=766 VAF=127
+ IKF=54.7m ISE=2.14p NE=2.00 BR=4.00 NR=1.00
+ VAR=24.0 IKR=0.135 RE=0.815 RB=3.26 RC=0.326
+ XTB=1.5 CJE=20.7p VJE=1.10 MJE=0.500 CJC=11.4p VJC=0.300
+ MJC=0.300 TF=567p TR=119n EG=1.12 )
********************************************************************************************************************************
***************************************************************************************************************************************
Note:  The following SPICE model is for the transistor element.
When applying this SPICE model to your circuit simulation be certain
to add R1 and/or R2 values per the table found on sheet 1 of the data
sheet.  Allow +/- 30% resistance tolerance and +/- 20% for R2/R1 ratio
tolerance.

*SRC=DCX114YU;DI_DCX114YU;BJTs NPN; Si;  50.0V  0.150A  200MHz   Diodes Inc. PBTs
.MODEL DI_DCX114YU  NPN (IS=16.8f NF=1.00 BF=766 VAF=127
+ IKF=91.1m ISE=3.59p NE=2.00 BR=4.00 NR=1.00
+ VAR=28.0 IKR=0.225 RE=0.665 RB=2.66 RC=0.266
+ XTB=1.5 CJE=11.3p VJE=1.10 MJE=0.500 CJC=4.50p VJC=0.300
+ MJC=0.300 TF=549p TR=119n EG=1.12 )*********

******************************************************************************************************************************************
Note:  The following SPICE model is for the transistor element.
When applying this SPICE model to your circuit simulation be certain
to add R1 and/or R2 values per the table found on sheet 1 of the data
sheet.  Allow +/- 30% resistance tolerance and +/- 20% for R2/R1 ratio 
tolerance.

*SRC=DCX122LH;DI_DCX122LH;BJTs PNP; Si;  50.0V  0.150A  200MHz   Diodes Inc. PBTs
.MODEL DI_DCX122LH  NPN (IS=9.98f NF=1.00 BF=766 VAF=127
+ IKF=54.7m ISE=2.14p NE=2.00 BR=4.00 NR=1.00
+ VAR=24.0 IKR=0.135 RE=0.815 RB=3.26 RC=0.326
+ XTB=1.5 CJE=20.7p VJE=1.10 MJE=0.500 CJC=11.4p VJC=0.300
+ MJC=0.300 TF=567p TR=119n EG=1.12 )
********************************************************************************************************************************
***************************************************************************************************************************************
Note:  The following SPICE model is for the transistor element.
When applying this SPICE model to your circuit simulation be certain
to add R1 and/or R2 values per the table found on sheet 1 of the data
sheet.  Allow +/- 30% resistance tolerance and +/- 20% for R2/R1 ratio
tolerance.

*SRC=DCX122LH;DI_DCX122LH;BJTs NPN; Si;  50.0V  0.150A  200MHz   Diodes Inc. PBTs
.MODEL DI_DCX122LH  NPN (IS=16.8f NF=1.00 BF=766 VAF=127
+ IKF=91.1m ISE=3.59p NE=2.00 BR=4.00 NR=1.00
+ VAR=28.0 IKR=0.225 RE=0.665 RB=2.66 RC=0.266
+ XTB=1.5 CJE=11.3p VJE=1.10 MJE=0.500 CJC=4.50p VJC=0.300
+ MJC=0.300 TF=549p TR=119n EG=1.12 )*********

******************************************************************************************************************************************
Note:  The following SPICE model is for the transistor element.
When applying this SPICE model to your circuit simulation be certain
to add R1 and/or R2 values per the table found on sheet 1 of the data
sheet.  Allow +/- 30% resistance tolerance and +/- 20% for R2/R1 ratio 
tolerance.

*SRC=DCX122TH;DI_DCX122TH;BJTs PNP; Si;  50.0V  0.150A  200MHz   Diodes Inc. PBTs
.MODEL DI_DCX122TH  NPN (IS=9.98f NF=1.00 BF=766 VAF=127
+ IKF=54.7m ISE=2.14p NE=2.00 BR=4.00 NR=1.00
+ VAR=24.0 IKR=0.135 RE=0.815 RB=3.26 RC=0.326
+ XTB=1.5 CJE=20.7p VJE=1.10 MJE=0.500 CJC=11.4p VJC=0.300
+ MJC=0.300 TF=567p TR=119n EG=1.12 )
********************************************************************************************************************************
***************************************************************************************************************************************
Note:  The following SPICE model is for the transistor element.
When applying this SPICE model to your circuit simulation be certain
to add R1 and/or R2 values per the table found on sheet 1 of the data
sheet.  Allow +/- 30% resistance tolerance and +/- 20% for R2/R1 ratio
tolerance.

*SRC=DCX122TH;DI_DCX122TH;BJTs NPN; Si;  50.0V  0.150A  200MHz   Diodes Inc. PBTs
.MODEL DI_DCX122TH  NPN (IS=16.8f NF=1.00 BF=766 VAF=127
+ IKF=91.1m ISE=3.59p NE=2.00 BR=4.00 NR=1.00
+ VAR=28.0 IKR=0.225 RE=0.665 RB=2.66 RC=0.266
+ XTB=1.5 CJE=11.3p VJE=1.10 MJE=0.500 CJC=4.50p VJC=0.300
+ MJC=0.300 TF=549p TR=119n EG=1.12 )*********

******************************************************************************************************************************************
Note:  The following SPICE model is for the transistor element.
When applying this SPICE model to your circuit simulation be certain
to add R1 and/or R2 values per the table found on sheet 1 of the data
sheet.  Allow +/- 30% resistance tolerance and +/- 20% for R2/R1 ratio 
tolerance.

*SRC=DCX123JH;DI_DCX123JH;BJTs PNP; Si;  50.0V  0.150A  200MHz   Diodes Inc. PBTs
.MODEL DI_DCX123JH  NPN (IS=9.98f NF=1.00 BF=766 VAF=127
+ IKF=54.7m ISE=2.14p NE=2.00 BR=4.00 NR=1.00
+ VAR=24.0 IKR=0.135 RE=0.815 RB=3.26 RC=0.326
+ XTB=1.5 CJE=20.7p VJE=1.10 MJE=0.500 CJC=11.4p VJC=0.300
+ MJC=0.300 TF=567p TR=119n EG=1.12 )
********************************************************************************************************************************
***************************************************************************************************************************************
Note:  The following SPICE model is for the transistor element.
When applying this SPICE model to your circuit simulation be certain
to add R1 and/or R2 values per the table found on sheet 1 of the data
sheet.  Allow +/- 30% resistance tolerance and +/- 20% for R2/R1 ratio
tolerance.

*SRC=DCX123JH;DI_DCX123JH;BJTs NPN; Si;  50.0V  0.150A  200MHz   Diodes Inc. PBTs
.MODEL DI_DCX123JH  NPN (IS=16.8f NF=1.00 BF=766 VAF=127
+ IKF=91.1m ISE=3.59p NE=2.00 BR=4.00 NR=1.00
+ VAR=28.0 IKR=0.225 RE=0.665 RB=2.66 RC=0.266
+ XTB=1.5 CJE=11.3p VJE=1.10 MJE=0.500 CJC=4.50p VJC=0.300
+ MJC=0.300 TF=549p TR=119n EG=1.12 )*********

******************************************************************************************************************************************
Note:  The following SPICE model is for the transistor element.
When applying this SPICE model to your circuit simulation be certain
to add R1 and/or R2 values per the table found on sheet 1 of the data
sheet.  Allow +/- 30% resistance tolerance and +/- 20% for R2/R1 ratio 
tolerance.

*SRC=DCX123JK;DI_DCX123JK;BJTs PNP; Si;  50.0V  0.150A  200MHz   Diodes Inc. PBTs
.MODEL DI_DCX123JK  NPN (IS=9.98f NF=1.00 BF=766 VAF=127
+ IKF=54.7m ISE=2.14p NE=2.00 BR=4.00 NR=1.00
+ VAR=24.0 IKR=0.135 RE=0.815 RB=3.26 RC=0.326
+ XTB=1.5 CJE=20.7p VJE=1.10 MJE=0.500 CJC=11.4p VJC=0.300
+ MJC=0.300 TF=567p TR=119n EG=1.12 )
********************************************************************************************************************************
***************************************************************************************************************************************
Note:  The following SPICE model is for the transistor element.
When applying this SPICE model to your circuit simulation be certain
to add R1 and/or R2 values per the table found on sheet 1 of the data
sheet.  Allow +/- 30% resistance tolerance and +/- 20% for R2/R1 ratio
tolerance.

*SRC=DCX123JK;DI_DCX123JK;BJTs NPN; Si;  50.0V  0.150A  200MHz   Diodes Inc. PBTs
.MODEL DI_DCX123JK  NPN (IS=16.8f NF=1.00 BF=766 VAF=127
+ IKF=91.1m ISE=3.59p NE=2.00 BR=4.00 NR=1.00
+ VAR=28.0 IKR=0.225 RE=0.665 RB=2.66 RC=0.266
+ XTB=1.5 CJE=11.3p VJE=1.10 MJE=0.500 CJC=4.50p VJC=0.300
+ MJC=0.300 TF=549p TR=119n EG=1.12 )*********

******************************************************************************************************************************************
Note:  The following SPICE model is for the transistor element.
When applying this SPICE model to your circuit simulation be certain
to add R1 and/or R2 values per the table found on sheet 1 of the data
sheet.  Allow +/- 30% resistance tolerance and +/- 20% for R2/R1 ratio 
tolerance.

*SRC=DCX123JU;DI_DCX123JU;BJTs PNP; Si;  50.0V  0.150A  200MHz   Diodes Inc. PBTs
.MODEL DI_DCX123JU  NPN (IS=9.98f NF=1.00 BF=766 VAF=127
+ IKF=54.7m ISE=2.14p NE=2.00 BR=4.00 NR=1.00
+ VAR=24.0 IKR=0.135 RE=0.815 RB=3.26 RC=0.326
+ XTB=1.5 CJE=20.7p VJE=1.10 MJE=0.500 CJC=11.4p VJC=0.300
+ MJC=0.300 TF=567p TR=119n EG=1.12 )
********************************************************************************************************************************
***************************************************************************************************************************************
Note:  The following SPICE model is for the transistor element.
When applying this SPICE model to your circuit simulation be certain
to add R1 and/or R2 values per the table found on sheet 1 of the data
sheet.  Allow +/- 30% resistance tolerance and +/- 20% for R2/R1 ratio
tolerance.

*SRC=DCX123JU;DI_DCX123JU;BJTs NPN; Si;  50.0V  0.150A  200MHz   Diodes Inc. PBTs
.MODEL DI_DCX123JU  NPN (IS=16.8f NF=1.00 BF=766 VAF=127
+ IKF=91.1m ISE=3.59p NE=2.00 BR=4.00 NR=1.00
+ VAR=28.0 IKR=0.225 RE=0.665 RB=2.66 RC=0.266
+ XTB=1.5 CJE=11.3p VJE=1.10 MJE=0.500 CJC=4.50p VJC=0.300
+ MJC=0.300 TF=549p TR=119n EG=1.12 )*********

******************************************************************************************************************************************
Note:  The following SPICE model is for the transistor element.
When applying this SPICE model to your circuit simulation be certain
to add R1 and/or R2 values per the table found on sheet 1 of the data
sheet.  Allow +/- 30% resistance tolerance and +/- 20% for R2/R1 ratio 
tolerance.

*SRC=DCX124EH;DI_DCX124EH;BJTs PNP; Si;  50.0V  0.150A  200MHz   Diodes Inc. PBTs
.MODEL DI_DCX124EH  NPN (IS=9.98f NF=1.00 BF=766 VAF=127
+ IKF=54.7m ISE=2.14p NE=2.00 BR=4.00 NR=1.00
+ VAR=24.0 IKR=0.135 RE=0.815 RB=3.26 RC=0.326
+ XTB=1.5 CJE=20.7p VJE=1.10 MJE=0.500 CJC=11.4p VJC=0.300
+ MJC=0.300 TF=567p TR=119n EG=1.12 )
********************************************************************************************************************************
***************************************************************************************************************************************
Note:  The following SPICE model is for the transistor element.
When applying this SPICE model to your circuit simulation be certain
to add R1 and/or R2 values per the table found on sheet 1 of the data
sheet.  Allow +/- 30% resistance tolerance and +/- 20% for R2/R1 ratio
tolerance.

*SRC=DCX124EH;DI_DCX124EH;BJTs NPN; Si;  50.0V  0.150A  200MHz   Diodes Inc. PBTs
.MODEL DI_DCX124EH  NPN (IS=16.8f NF=1.00 BF=766 VAF=127
+ IKF=91.1m ISE=3.59p NE=2.00 BR=4.00 NR=1.00
+ VAR=28.0 IKR=0.225 RE=0.665 RB=2.66 RC=0.266
+ XTB=1.5 CJE=11.3p VJE=1.10 MJE=0.500 CJC=4.50p VJC=0.300
+ MJC=0.300 TF=549p TR=119n EG=1.12 )*********

*SRC=DCX124EK;DI_DCX124EK;BJTs PNP; Si;  50.0V  0.150A  200MHz   Diodes Inc. PBTs
.MODEL DI_DCX124EK  NPN (IS=9.98f NF=1.00 BF=766 VAF=127
+ IKF=54.7m ISE=2.14p NE=2.00 BR=4.00 NR=1.00
+ VAR=24.0 IKR=0.135 RE=0.815 RB=3.26 RC=0.326
+ XTB=1.5 CJE=20.7p VJE=1.10 MJE=0.500 CJC=11.4p VJC=0.300
+ MJC=0.300 TF=567p TR=119n EG=1.12 )
********************************************************************************************************************************
***************************************************************************************************************************************
Note:  The following SPICE model is for the transistor element.
When applying this SPICE model to your circuit simulation be certain
to add R1 and/or R2 values per the table found on sheet 1 of the data
sheet.  Allow +/- 30% resistance tolerance and +/- 20% for R2/R1 ratio
tolerance.

*SRC=DCX124EK;DI_DCX124EK;BJTs NPN; Si;  50.0V  0.150A  200MHz   Diodes Inc. PBTs
.MODEL DI_DCX124EK  NPN (IS=16.8f NF=1.00 BF=766 VAF=127
+ IKF=91.1m ISE=3.59p NE=2.00 BR=4.00 NR=1.00
+ VAR=28.0 IKR=0.225 RE=0.665 RB=2.66 RC=0.266
+ XTB=1.5 CJE=11.3p VJE=1.10 MJE=0.500 CJC=4.50p VJC=0.300
+ MJC=0.300 TF=549p TR=119n EG=1.12 )*********

******************************************************************************************************************************************
Note:  The following SPICE model is for the transistor element.
When applying this SPICE model to your circuit simulation be certain
to add R1 and/or R2 values per the table found on sheet 1 of the data
sheet.  Allow +/- 30% resistance tolerance and +/- 20% for R2/R1 ratio 
tolerance.

*SRC=DCX124EU;DI_DCX124EU;BJTs PNP; Si;  50.0V  0.150A  200MHz   Diodes Inc. PBTs
.MODEL DI_DCX124EU  NPN (IS=9.98f NF=1.00 BF=766 VAF=127
+ IKF=54.7m ISE=2.14p NE=2.00 BR=4.00 NR=1.00
+ VAR=24.0 IKR=0.135 RE=0.815 RB=3.26 RC=0.326
+ XTB=1.5 CJE=20.7p VJE=1.10 MJE=0.500 CJC=11.4p VJC=0.300
+ MJC=0.300 TF=567p TR=119n EG=1.12 )
********************************************************************************************************************************
***************************************************************************************************************************************
Note:  The following SPICE model is for the transistor element.
When applying this SPICE model to your circuit simulation be certain
to add R1 and/or R2 values per the table found on sheet 1 of the data
sheet.  Allow +/- 30% resistance tolerance and +/- 20% for R2/R1 ratio
tolerance.

*SRC=DCX124EU;DI_DCX124EU;BJTs NPN; Si;  50.0V  0.150A  200MHz   Diodes Inc. PBTs
.MODEL DI_DCX124EU  NPN (IS=16.8f NF=1.00 BF=766 VAF=127
+ IKF=91.1m ISE=3.59p NE=2.00 BR=4.00 NR=1.00
+ VAR=28.0 IKR=0.225 RE=0.665 RB=2.66 RC=0.266
+ XTB=1.5 CJE=11.3p VJE=1.10 MJE=0.500 CJC=4.50p VJC=0.300
+ MJC=0.300 TF=549p TR=119n EG=1.12 )*********

******************************************************************************************************************************************
Note:  The following SPICE model is for the transistor element.
When applying this SPICE model to your circuit simulation be certain
to add R1 and/or R2 values per the table found on sheet 1 of the data
sheet.  Allow +/- 30% resistance tolerance and +/- 20% for R2/R1 ratio 
tolerance.

*SRC=DCX142JH;DI_DCX142JH;BJTs PNP; Si;  50.0V  0.150A  200MHz   Diodes Inc. PBTs
.MODEL DI_DCX142JH  NPN (IS=9.98f NF=1.00 BF=766 VAF=127
+ IKF=54.7m ISE=2.14p NE=2.00 BR=4.00 NR=1.00
+ VAR=24.0 IKR=0.135 RE=0.815 RB=3.26 RC=0.326
+ XTB=1.5 CJE=20.7p VJE=1.10 MJE=0.500 CJC=11.4p VJC=0.300
+ MJC=0.300 TF=567p TR=119n EG=1.12 )
********************************************************************************************************************************
***************************************************************************************************************************************
Note:  The following SPICE model is for the transistor element.
When applying this SPICE model to your circuit simulation be certain
to add R1 and/or R2 values per the table found on sheet 1 of the data
sheet.  Allow +/- 30% resistance tolerance and +/- 20% for R2/R1 ratio
tolerance.

*SRC=DCX142JH;DI_DCX142JH;BJTs NPN; Si;  50.0V  0.150A  200MHz   Diodes Inc. PBTs
.MODEL DI_DCX142JH  NPN (IS=16.8f NF=1.00 BF=766 VAF=127
+ IKF=91.1m ISE=3.59p NE=2.00 BR=4.00 NR=1.00
+ VAR=28.0 IKR=0.225 RE=0.665 RB=2.66 RC=0.266
+ XTB=1.5 CJE=11.3p VJE=1.10 MJE=0.500 CJC=4.50p VJC=0.300
+ MJC=0.300 TF=549p TR=119n EG=1.12 )*********

******************************************************************************************************************************************
Note:  The following SPICE model is for the transistor element.
When applying this SPICE model to your circuit simulation be certain
to add R1 and/or R2 values per the table found on sheet 1 of the data
sheet.  Allow +/- 30% resistance tolerance and +/- 20% for R2/R1 ratio 
tolerance.

*SRC=DCX142TH;DI_DCX142TH;BJTs PNP; Si;  50.0V  0.150A  200MHz   Diodes Inc. PBTs
.MODEL DI_DCX142TH  NPN (IS=9.98f NF=1.00 BF=766 VAF=127
+ IKF=54.7m ISE=2.14p NE=2.00 BR=4.00 NR=1.00
+ VAR=24.0 IKR=0.135 RE=0.815 RB=3.26 RC=0.326
+ XTB=1.5 CJE=20.7p VJE=1.10 MJE=0.500 CJC=11.4p VJC=0.300
+ MJC=0.300 TF=567p TR=119n EG=1.12 )