* Library of A/D and D/A Converters
*
* Copyright 1997-1997 by MicroSim Corporation
* Neither this library nor any part may be copied without the express
* written consent of MicroSim Corporation
*
*
* $Revision:   
* $Author:   
* $Date:   
*
*
* ----------------------------------------------------------------------
*
*
*                              Single and Multiple Bit Buffers
*
**************************************************************************

* Buffers are implemented through symbol TEMPLATES entirely to allow
* IO_MODEL to be passed from the hierarchical symbol.

* ----------------------------------------------------------------------
*
*
*                              A/D Converters
*
**************************************************************************

.subckt DC_ADC2 IN REF GND CNVRT STAT OVR
+                   DB1 DB0
+                   OPTIONAL: DPWR=$G_DPWR DGND=$G_DGND
+                   PARAMS: MNTYMXDLY=0 IO_LEVEL=0
+                   CONVWHI=40n CONVWLO=60n

U1 ADC(2) DPWR DGND IN REF GND CNVRT STAT OVR 
+          DB1 DB0
+          ADC2_TIMING IO_HCT
+          MNTYMXDLY={MNTYMXDLY} IO_LEVEL={IO_LEVEL}

.MODEL  ADC2_TIMING UADC 

UC CONSTRAINT (1) DPWR DGND
+ CNVRT
+ IO_HCT  IO_LEVEL={IO_LEVEL}
+
+
+ WIDTH:
+   NODE = CNVRT
+   MIN_HI = {CONVWHI}
+   MIN_LO = {CONVWLO}
+

.ENDS
*$

.subckt DC_ADC4 IN REF GND CNVRT STAT OVR
+                   DB3 DB2 DB1 DB0
+                   OPTIONAL: DPWR=$G_DPWR DGND=$G_DGND
+                   PARAMS: MNTYMXDLY=0 IO_LEVEL=0
+                   CONVWHI=40n CONVWLO=60n

U1 ADC(4) DPWR DGND IN REF GND CNVRT STAT OVR 
+          DB3 DB2 DB1 DB0
+          ADC4_TIMING IO_HCT
+          MNTYMXDLY={MNTYMXDLY} IO_LEVEL={IO_LEVEL}

.MODEL  ADC4_TIMING UADC 

UC CONSTRAINT (1) DPWR DGND
+ CNVRT
+ IO_HCT  IO_LEVEL={IO_LEVEL}
+
+
+ WIDTH:
+   NODE = CNVRT
+   MIN_HI = {CONVWHI}
+   MIN_LO = {CONVWLO}
+

.ENDS
*$

.subckt DC_ADC6 IN REF GND CNVRT STAT OVR
+                   DB5 DB4 DB3 DB2 DB1 DB0
+                   OPTIONAL: DPWR=$G_DPWR DGND=$G_DGND
+                   PARAMS: MNTYMXDLY=0 IO_LEVEL=0
+                   CONVWHI=40n CONVWLO=60n

U1 ADC(6) DPWR DGND IN REF GND CNVRT STAT OVR 
+          DB5 DB4 DB3 DB2 DB1 DB0
+          ADC6_TIMING IO_HCT
+          MNTYMXDLY={MNTYMXDLY} IO_LEVEL={IO_LEVEL}

.MODEL  ADC6_TIMING UADC 

UC CONSTRAINT (1) DPWR DGND
+ CNVRT
+ IO_HCT  IO_LEVEL={IO_LEVEL}
+
+
+ WIDTH:
+   NODE = CNVRT
+   MIN_HI = {CONVWHI}
+   MIN_LO = {CONVWLO}
+

.ENDS
*$

.subckt DC_ADC8 IN REF GND CNVRT STAT OVR
+                   DB7 DB6 DB5 DB4 DB3 DB2 DB1 DB0
+                   OPTIONAL: DPWR=$G_DPWR DGND=$G_DGND
+                   PARAMS: MNTYMXDLY=0 IO_LEVEL=0
+                   CONVWHI=40n CONVWLO=60n

U1 ADC(8) DPWR DGND IN REF GND CNVRT STAT OVR 
+          DB7 DB6 DB5 DB4 DB3 DB2 DB1 DB0
+          ADC8_TIMING IO_HCT
+          MNTYMXDLY={MNTYMXDLY} IO_LEVEL={IO_LEVEL}

.MODEL  ADC8_TIMING UADC 

UC CONSTRAINT (1) DPWR DGND
+ CNVRT
+ IO_HCT  IO_LEVEL={IO_LEVEL}
+
+
+ WIDTH:
+   NODE = CNVRT
+   MIN_HI = {CONVWHI}
+   MIN_LO = {CONVWLO}
+

.ENDS
*$

.subckt DC_ADC10 IN REF GND CNVRT STAT OVR
+                   DB9 DB8 DB7 DB6 DB5 DB4 DB3 DB2 DB1 DB0
+                   OPTIONAL: DPWR=$G_DPWR DGND=$G_DGND
+                   PARAMS: MNTYMXDLY=0 IO_LEVEL=0
+                   CONVWHI=40n CONVWLO=60n

U1 ADC(10) DPWR DGND IN REF GND CNVRT STAT OVR 
+          DB9 DB8 DB7 DB6 DB5 DB4 DB3 DB2 DB1 DB0
+          ADC10_TIMING IO_HCT
+          MNTYMXDLY={MNTYMXDLY} IO_LEVEL={IO_LEVEL}

.MODEL  ADC10_TIMING UADC 

UC CONSTRAINT (1) DPWR DGND
+ CNVRT
+ IO_HCT  IO_LEVEL={IO_LEVEL}
+
+
+ WIDTH:
+   NODE = CNVRT
+   MIN_HI = {CONVWHI}
+   MIN_LO = {CONVWLO}
+

.ENDS
*$

.subckt DC_ADC12 IN REF GND CNVRT STAT OVR
+                   DB11 DB10 DB9 DB8 DB7 DB6 DB5 DB4 DB3 DB2 DB1 DB0
+                   OPTIONAL: DPWR=$G_DPWR DGND=$G_DGND
+                   PARAMS: MNTYMXDLY=0 IO_LEVEL=0
+                   CONVWHI=40n CONVWLO=60n

U1 ADC(12) DPWR DGND IN REF GND CNVRT STAT OVR 
+          DB11 DB10 DB9 DB8 DB7 DB6 DB5 DB4 DB3 DB2 DB1 DB0
+          ADC12_TIMING IO_HCT
+          MNTYMXDLY={MNTYMXDLY} IO_LEVEL={IO_LEVEL}

.MODEL  ADC12_TIMING UADC 

UC CONSTRAINT (1) DPWR DGND
+ CNVRT
+ IO_HCT  IO_LEVEL={IO_LEVEL}
+
+
+ WIDTH:
+   NODE = CNVRT
+   MIN_HI = {CONVWHI}
+   MIN_LO = {CONVWLO}
+

.ENDS
*$

.subckt DC_ADC14 IN REF GND CNVRT STAT OVR
+                   DB13 DB12 DB11 DB10 DB9 DB8 DB7 DB6 DB5 DB4 DB3 DB2 DB1 DB0
+                   OPTIONAL: DPWR=$G_DPWR DGND=$G_DGND
+                   PARAMS: MNTYMXDLY=0 IO_LEVEL=0
+                   CONVWHI=40n CONVWLO=60n

U1 ADC(14) DPWR DGND IN REF GND CNVRT STAT OVR 
+          DB13 DB12 DB11 DB10 DB9 DB8 DB7 DB6 DB5 DB4 DB3 DB2 DB1 DB0
+          ADC14_TIMING IO_HCT
+          MNTYMXDLY={MNTYMXDLY} IO_LEVEL={IO_LEVEL}

.MODEL  ADC14_TIMING UADC 

UC CONSTRAINT (1) DPWR DGND
+ CNVRT
+ IO_HCT  IO_LEVEL={IO_LEVEL}
+
+
+ WIDTH:
+   NODE = CNVRT
+   MIN_HI = {CONVWHI}
+   MIN_LO = {CONVWLO}
+

.ENDS
*$

.subckt DC_ADC16 IN REF GND CNVRT STAT OVR
+         DB15 DB14 DB13 DB12 DB11 DB10 DB9 DB8 DB7 DB6 DB5 DB4 DB3 DB2 DB1 DB0
+         OPTIONAL: DPWR=$G_DPWR DGND=$G_DGND
+         PARAMS: MNTYMXDLY=0 IO_LEVEL=0
+                   CONVWHI=40n CONVWLO=60n

U1 ADC(16) DPWR DGND IN REF GND CNVRT STAT OVR 
+         DB15 DB14 DB13 DB12 DB11 DB10 DB9 DB8 DB7 DB6 DB5 DB4 DB3 DB2 DB1 DB0
+         ADC16_TIMING IO_HCT
+         MNTYMXDLY={MNTYMXDLY} IO_LEVEL={IO_LEVEL}

.MODEL  ADC16_TIMING UADC 

UC CONSTRAINT (1) DPWR DGND
+ CNVRT
+ IO_HCT  IO_LEVEL={IO_LEVEL}
+
+
+ WIDTH:
+   NODE = CNVRT
+   MIN_HI = {CONVWHI}
+   MIN_LO = {CONVWLO}
+

.ENDS

*$

.subckt DC_ADC20 IN REF GND CNVRT STAT OVR
+                   DB19 DB18 DB17 DB16 DB15 DB14 DB13 DB12
+                   DB11 DB10 DB9 DB8 DB7 DB6 DB5 DB4 DB3 DB2 DB1 DB0
+                   OPTIONAL: DPWR=$G_DPWR DGND=$G_DGND
+                   PARAMS: MNTYMXDLY=0 IO_LEVEL=0
+                   CONVWHI=40n CONVWLO=60n

U1 ADC(20) DPWR DGND IN REF GND CNVRT STAT OVR 
+          DB19 DB18 DB17 DB16 DB15 DB14 DB13 DB12
+          DB11 DB10 DB9 DB8 DB7 DB6 DB5 DB4 DB3 DB2 DB1 DB0
+          ADC20_TIMING IO_HCT
+          MNTYMXDLY={MNTYMXDLY} IO_LEVEL={IO_LEVEL}

.MODEL  ADC20_TIMING UADC 

UC CONSTRAINT (1) DPWR DGND
+ CNVRT
+ IO_HCT  IO_LEVEL={IO_LEVEL}
+
+
+ WIDTH:
+   NODE = CNVRT
+   MIN_HI = {CONVWHI}
+   MIN_LO = {CONVWLO}
+

.ENDS
*$

.subckt DC_ADC24 IN REF GND CNVRT STAT OVR
+                   DB23 DB22 DB21 DB20 DB19 DB18 DB17 DB16 DB15 DB14 DB13 DB12
+                   DB11 DB10 DB9 DB8 DB7 DB6 DB5 DB4 DB3 DB2 DB1 DB0
+                   OPTIONAL: DPWR=$G_DPWR DGND=$G_DGND
+                   PARAMS: MNTYMXDLY=0 IO_LEVEL=0
+                   CONVWHI=40n CONVWLO=60n

U1 ADC(24) DPWR DGND IN REF GND CNVRT STAT OVR 
+          DB23 DB22 DB21 DB20 DB19 DB18 DB17 DB16 DB15 DB14 DB13 DB12
+          DB11 DB10 DB9 DB8 DB7 DB6 DB5 DB4 DB3 DB2 DB1 DB0
+          ADC24_TIMING IO_HCT
+          MNTYMXDLY={MNTYMXDLY} IO_LEVEL={IO_LEVEL}

.MODEL  ADC24_TIMING UADC 

UC CONSTRAINT (1) DPWR DGND
+ CNVRT
+ IO_HCT  IO_LEVEL={IO_LEVEL}
+
+
+ WIDTH:
+   NODE = CNVRT
+   MIN_HI = {CONVWHI}
+   MIN_LO = {CONVWLO}
+

.ENDS
*$

* ----------------------------------------------------------------------
*
*
*                              D/A Converters
*
**************************************************************************

.subckt DC_DAC2 OUT REF GND
+                 DB1 DB0
+                 OPTIONAL: DPWR=$G_DPWR DGND=$G_DGND
+                 PARAMS: MNTYMXDLY=0 IO_LEVEL=0 TSWMIN=10n TSWTYP=10n TSWMAX=10n

U1 DAC(2) DPWR DGND OUT REF GND
+         DB1 DB0
+         DAC2_TIMING IO_STD
+         MNTYMXDLY={MNTYMXDLY} IO_LEVEL={IO_LEVEL}

.MODEL DAC2_TIMING UDAC (TSWMN={TSWMIN} TSWTY={TSWTYP} TSWMX={TSWMAX}) ;Min Slew Rate approx.

.ENDS
*$

.subckt DC_DAC4 OUT REF GND
+                 DB3 DB2 DB1 DB0
+                 OPTIONAL: DPWR=$G_DPWR DGND=$G_DGND
+                 PARAMS: MNTYMXDLY=0 IO_LEVEL=0 TSWMIN=10n TSWTYP=10n TSWMAX=10n

U1 DAC(4) DPWR DGND OUT REF GND
+         DB3 DB2 DB1 DB0
+         DAC4_TIMING IO_STD
+         MNTYMXDLY={MNTYMXDLY} IO_LEVEL={IO_LEVEL}

.MODEL DAC4_TIMING UDAC (TSWMN={TSWMIN} TSWTY={TSWTYP} TSWMX={TSWMAX}) ;Min Slew Rate approx.

.ENDS
*$

.subckt DC_DAC6 OUT REF GND
+                 DB5 DB4 DB3 DB2 DB1 DB0
+                 OPTIONAL: DPWR=$G_DPWR DGND=$G_DGND
+                 PARAMS: MNTYMXDLY=0 IO_LEVEL=0 TSWMIN=10n TSWTYP=10n TSWMAX=10n

U1 DAC(6) DPWR DGND OUT REF GND
+         DB5 DB4 DB3 DB2 DB1 DB0
+         DAC6_TIMING IO_STD
+         MNTYMXDLY={MNTYMXDLY} IO_LEVEL={IO_LEVEL}

.MODEL DAC6_TIMING UDAC (TSWMN={TSWMIN} TSWTY={TSWTYP} TSWMX={TSWMAX}) ;Min Slew Rate approx.

.ENDS
*$

.subckt DC_DAC8 OUT REF GND
+                 DB7 DB6 DB5 DB4 DB3 DB2 DB1 DB0
+                 OPTIONAL: DPWR=$G_DPWR DGND=$G_DGND
+                 PARAMS: MNTYMXDLY=0 IO_LEVEL=0 TSWMIN=10n TSWTYP=10n TSWMAX=10n

U1 DAC(8) DPWR DGND OUT REF GND
+         DB7 DB6 DB5 DB4 DB3 DB2 DB1 DB0
+         DAC8_TIMING IO_STD
+         MNTYMXDLY={MNTYMXDLY} IO_LEVEL={IO_LEVEL}

.MODEL DAC8_TIMING UDAC (TSWMN={TSWMIN} TSWTY={TSWTYP} TSWMX={TSWMAX}) ;Min Slew Rate approx.

.ENDS
*$

.subckt DC_DAC10 OUT REF GND
+                 DB9 DB8 DB7 DB6 DB5 DB4 DB3 DB2 DB1 DB0
+                 OPTIONAL: DPWR=$G_DPWR DGND=$G_DGND
+                 PARAMS: MNTYMXDLY=0 IO_LEVEL=0 TSWMIN=10n TSWTYP=10n TSWMAX=10n

U1 DAC(10) DPWR DGND OUT REF GND
+         DB9 DB8 DB7 DB6 DB5 DB4 DB3 DB2 DB1 DB0
+         DAC10_TIMING IO_STD
+         MNTYMXDLY={MNTYMXDLY} IO_LEVEL={IO_LEVEL}

.MODEL DAC10_TIMING UDAC (TSWMN={TSWMIN} TSWTY={TSWTYP} TSWMX={TSWMAX}) ;Min Slew Rate approx.

.ENDS
*$

.subckt DC_DAC12 OUT REF GND
+                 DB11 DB10 DB9 DB8 DB7 DB6 DB5 DB4 DB3 DB2 DB1 DB0
+                 OPTIONAL: DPWR=$G_DPWR DGND=$G_DGND
+                 PARAMS: MNTYMXDLY=0 IO_LEVEL=0

U1 DAC(12) DPWR DGND OUT REF GND
+         DB11 DB10 DB9 DB8 DB7 DB6 DB5 DB4 DB3 DB2 DB1 DB0
+         DAC12_TIMING IO_HCT
+         MNTYMXDLY={MNTYMXDLY} IO_LEVEL={IO_LEVEL}

.MODEL DAC12_TIMING UDAC 

.ENDS
*$

.subckt DC_DAC14 OUT REF GND
+                 DB13 DB12 DB11 DB10 DB9 DB8 DB7 DB6 DB5 DB4 DB3 DB2 DB1 DB0
+                 OPTIONAL: DPWR=$G_DPWR DGND=$G_DGND
+                 PARAMS: MNTYMXDLY=0 IO_LEVEL=0

U1 DAC(14) DPWR DGND OUT REF GND
+         DB13 DB12 DB11 DB10 DB9 DB8 DB7 DB6 DB5 DB4 DB3 DB2 DB1 DB0
+         DAC14_TIMING IO_HCT
+         MNTYMXDLY={MNTYMXDLY} IO_LEVEL={IO_LEVEL}

.MODEL DAC14_TIMING UDAC 

.ENDS
*$

.subckt DC_DAC16 OUT REF GND
+              DB15 DB14 DB13 DB12 DB11 DB10 DB9 DB8 
+              DB7 DB6 DB5 DB4 DB3 DB2 DB1 DB0
+              OPTIONAL: DPWR=$G_DPWR DGND=$G_DGND
+              PARAMS: MNTYMXDLY=0 IO_LEVEL=0

U1 DAC(16) DPWR DGND OUT REF GND
+         DB15 DB14 DB13 DB12 DB11 DB10 DB9 DB8 
+         DB7 DB6 DB5 DB4 DB3 DB2 DB1 DB0
+         DAC16_TIMING IO_STD
+         MNTYMXDLY={MNTYMXDLY} IO_LEVEL={IO_LEVEL}

.MODEL DAC16_TIMING UDAC 

.ENDS
*$

.subckt DC_DAC20 OUT REF GND
+              DB19 DB18 DB17 DB16 DB15 DB14 DB13 DB12 DB11 DB10 DB9 DB8 
+              DB7 DB6 DB5 DB4 DB3 DB2 DB1 DB0
+              OPTIONAL: DPWR=$G_DPWR DGND=$G_DGND
+              PARAMS: MNTYMXDLY=0 IO_LEVEL=0

U1 DAC(20) DPWR DGND OUT REF GND
+         DB19 DB18 DB17 DB16 DB15 DB14 DB13 DB12 DB11 DB10 DB9 DB8 
+         DB7 DB6 DB5 DB4 DB3 DB2 DB1 DB0
+         DAC20_TIMING IO_STD
+         MNTYMXDLY={MNTYMXDLY} IO_LEVEL={IO_LEVEL}

.MODEL DAC20_TIMING UDAC 

.ENDS
*$

.subckt DC_DAC24 OUT REF GND
+              DB23 DB22 DB21 DB20 DB19 DB18 DB17 DB16
+              DB15 DB14 DB13 DB12 DB11 DB10 DB9 DB8 
+              DB7 DB6 DB5 DB4 DB3 DB2 DB1 DB0
+              OPTIONAL: DPWR=$G_DPWR DGND=$G_DGND
+              PARAMS: MNTYMXDLY=0 IO_LEVEL=0

U1 DAC(24) DPWR DGND OUT REF GND
+         DB23 DB22 DB21 DB20 DB19 DB18 DB17 DB16
+         DB15 DB14 DB13 DB12 DB11 DB10 DB9 DB8 
+         DB7 DB6 DB5 DB4 DB3 DB2 DB1 DB0
+         DAC24_TIMING IO_STD
+         MNTYMXDLY={MNTYMXDLY} IO_LEVEL={IO_LEVEL}

.MODEL DAC24_TIMING UDAC 

.ENDS
*$

* ----------------------------------------------------------------------
*
*
*                              Registers
*
**************************************************************************

.subckt DC_REG2 PREbar CLRbar Gate
+ D1 D0
+ Q1 Q0
+ OPTIONAL: DPWR=$G_DPWR DGND=$G_DGND
+ PARAMS: MNTYMXDLY=0 IO_LEVEL=0 THDGMIN=10n TSUDGMIN=90n

UINREG DLTCH(2) DPWR DGND PREbar CLRbar Gate     
+               D1 D0
+               Q1 Q0
+               QN1 QN0
+               REG_TIME IO_HCT
.MODEL REG_TIME UGFF (THDGMN={THDGMIN} TSUDGMN={TSUDGMIN})
.ends
*$

.subckt DC_REG4 PREbar CLRbar Gate
+ D3 D2 D1 D0
+ Q3 Q2 Q1 Q0
+ OPTIONAL: DPWR=$G_DPWR DGND=$G_DGND
+ PARAMS: MNTYMXDLY=0 IO_LEVEL=0 THDGMIN=10n TSUDGMIN=90n

UINREG DLTCH(4) DPWR DGND PREbar CLRbar Gate     
+               D3 D2 D1 D0
+               Q3 Q2 Q1 Q0
+               QN3 QN2 QN1 QN0
+               REG_TIME IO_HCT
.MODEL REG_TIME UGFF (THDGMN={THDGMIN} TSUDGMN={TSUDGMIN})
.ends
*$

.subckt DC_REG6 PREbar CLRbar Gate
+ D5 D4 D3 D2 D1 D0
+ Q5 Q4 Q3 Q2 Q1 Q0
+ OPTIONAL: DPWR=$G_DPWR DGND=$G_DGND
+ PARAMS: MNTYMXDLY=0 IO_LEVEL=0 THDGMIN=10n TSUDGMIN=90n

UINREG DLTCH(6) DPWR DGND PREbar CLRbar Gate     
+               D5 D4 D3 D2 D1 D0
+               Q5 Q4 Q3 Q2 Q1 Q0
+               QN5 QN4 QN3 QN2 QN1 QN0
+               REG_TIME IO_HCT
.MODEL REG_TIME UGFF (THDGMN={THDGMIN} TSUDGMN={TSUDGMIN})
.ends
*$

.subckt DC_REG8 PREbar CLRbar Gate
+ D7 D6 D5 D4 D3 D2 D1 D0
+ Q7 Q6 Q5 Q4 Q3 Q2 Q1 Q0
+ OPTIONAL: DPWR=$G_DPWR DGND=$G_DGND
+ PARAMS: MNTYMXDLY=0 IO_LEVEL=0 THDGMIN=10n TSUDGMIN=90n

UINREG DLTCH(8) DPWR DGND PREbar CLRbar Gate     
+               D7 D6 D5 D4 D3 D2 D1 D0
+               Q7 Q6 Q5 Q4 Q3 Q2 Q1 Q0
+               QN7 QN6 QN5 QN4 QN3 QN2 QN1 QN0
+               REG_TIME IO_HCT
.MODEL REG_TIME UGFF (THDGMN={THDGMIN} TSUDGMN={TSUDGMIN})
.ends
*$

.subckt DC_REG10 PREbar CLRbar Gate
+ D9 D8 D7 D6 D5 D4 D3 D2 D1 D0
+ Q9 Q8 Q7 Q6 Q5 Q4 Q3 Q2 Q1 Q0
+ OPTIONAL: DPWR=$G_DPWR DGND=$G_DGND
+ PARAMS: MNTYMXDLY=0 IO_LEVEL=0 THDGMIN=10n TSUDGMIN=90n

UINREG DLTCH(10) DPWR DGND PREbar CLRbar Gate     
+               D9 D8 D7 D6 D5 D4 D3 D2 D1 D0
+               Q9 Q8 Q7 Q6 Q5 Q4 Q3 Q2 Q1 Q0
+               QN9 QN8 QN7 QN6 QN5 QN4 QN3 QN2 QN1 QN0
+               REG_TIME IO_HCT
.MODEL REG_TIME UGFF (THDGMN={THDGMIN} TSUDGMN={TSUDGMIN})
.ends
*$

.subckt DC_REG12 PREbar CLRbar Gate
+ D11 D10 D9 D8 D7 D6 D5 D4 D3 D2 D1 D0
+ Q11 Q10 Q9 Q8 Q7 Q6 Q5 Q4 Q3 Q2 Q1 Q0
+ OPTIONAL: DPWR=$G_DPWR DGND=$G_DGND
+ PARAMS: MNTYMXDLY=0 IO_LEVEL=0 THDGMIN=10n TSUDGMIN=90n

UINREG DLTCH(12) DPWR DGND PREbar CLRbar Gate     
+               D11 D10 D9 D8 D7 D6 D5 D4 D3 D2 D1 D0
+               Q11 Q10 Q9 Q8 Q7 Q6 Q5 Q4 Q3 Q2 Q1 Q0
+               QN11 QN10 QN9 QN8 QN7 QN6 QN5 QN4 QN3 QN2 QN1 QN0
+               REG_TIME IO_HCT
.MODEL REG_TIME UGFF (THDGMN={THDGMIN} TSUDGMN={TSUDGMIN})
.ends
*$

.subckt DC_REG14 PREbar CLRbar Gate
+ D13 D12 D11 D10 D9 D8 D7 D6 D5 D4 D3 D2 D1 D0
+ Q13 Q12 Q11 Q10 Q9 Q8 Q7 Q6 Q5 Q4 Q3 Q2 Q1 Q0
+ OPTIONAL: DPWR=$G_DPWR DGND=$G_DGND
+ PARAMS: MNTYMXDLY=0 IO_LEVEL=0 THDGMIN=10n TSUDGMIN=90n

UINREG DLTCH(14) DPWR DGND PREbar CLRbar Gate     
+               D13 D12 D11 D10 D9 D8 D7 D6 D5 D4 D3 D2 D1 D0
+               Q13 Q12 Q11 Q10 Q9 Q8 Q7 Q6 Q5 Q4 Q3 Q2 Q1 Q0
+               QN13 QN12 QN11 QN10 QN9 QN8 QN7 QN6 QN5 QN4 QN3 QN2 QN1 QN0
+               REG_TIME IO_HCT
.MODEL REG_TIME UGFF (THDGMN={THDGMIN} TSUDGMN={TSUDGMIN})
.ends
*$

.subckt DC_REG16 PREbar CLRbar Gate
+ D15 D14 D13 D12 D11 D10 D9 D8 D7 D6 D5 D4 D3 D2 D1 D0
+ Q15 Q14 Q13 Q12 Q11 Q10 Q9 Q8 Q7 Q6 Q5 Q4 Q3 Q2 Q1 Q0
+ OPTIONAL: DPWR=$G_DPWR DGND=$G_DGND
+ PARAMS: MNTYMXDLY=0 IO_LEVEL=0 THDGMIN=10n TSUDGMIN=90n TWGHMIN=0n TPGQTY=0n

UINREG DLTCH(16) DPWR DGND PREbar CLRbar Gate     
+               D15 D14 D13 D12 D11 D10 D9 D8 D7 D6 D5 D4 D3 D2 D1 D0
+               Q15 Q14 Q13 Q12 Q11 Q10 Q9 Q8 Q7 Q6 Q5 Q4 Q3 Q2 Q1 Q0
+               QN15 QN14 QN13 QN12 QN11 QN10 QN9 QN8 QN7 QN6 QN5 QN4 QN3 QN2 QN1 QN0
+               REG_TIME IO_HCT
.MODEL REG_TIME UGFF (THDGMN={THDGMIN} TSUDGMN={TSUDGMIN} 
+ TWGHMN={TWGHMIN} TPGQLHTY={TPGQTY} TPGQHLTY={TPGQTY})
.ends
*$

.subckt DC_REG20 PREbar CLRbar Gate
+ D19 D18 D17 D16 D15 D14 D13 D12 D11 D10 D9 D8 D7 D6 D5 D4 D3 D2 D1 D0
+ Q19 Q18 Q17 Q16 Q15 Q14 Q13 Q12 Q11 Q10 Q9 Q8 Q7 Q6 Q5 Q4 Q3 Q2 Q1 Q0
+ OPTIONAL: DPWR=$G_DPWR DGND=$G_DGND
+ PARAMS: MNTYMXDLY=0 IO_LEVEL=0 THDGMIN=10n TSUDGMIN=90n

UINREG DLTCH(20) DPWR DGND PREbar CLRbar Gate     
+ D19 D18 D17 D16 D15 D14 D13 D12 D11 D10 D9 D8 D7 D6 D5 D4 D3 D2 D1 D0
+ Q19 Q18 Q17 Q16 Q15 Q14 Q13 Q12 Q11 Q10 Q9 Q8 Q7 Q6 Q5 Q4 Q3 Q2 Q1 Q0
+ QN19 QN18 QN17 QN16 QN15 QN14 QN13 QN12 QN11 QN10 QN9 QN8 QN7 QN6 
+ QN5 QN4 QN3 QN2 QN1 QN0
+ REG_TIME IO_HCT
.MODEL REG_TIME UGFF (THDGMN={THDGMIN} TSUDGMN={TSUDGMIN})
.ends
*$

.subckt DC_REG24 PREbar CLRbar Gate
+ D23 D22 D21 D20 D19 D18 D17 D16 D15 D14 D13 D12 
+ D11 D10 D9 D8 D7 D6 D5 D4 D3 D2 D1 D0
+ Q23 Q22 Q21 Q20 Q19 Q18 Q17 Q16 Q15 Q14 Q13 Q12 
+ Q11 Q10 Q9 Q8 Q7 Q6 Q5 Q4 Q3 Q2 Q1 Q0
+ OPTIONAL: DPWR=$G_DPWR DGND=$G_DGND
+ PARAMS: MNTYMXDLY=0 IO_LEVEL=0 THDGMIN=10n TSUDGMIN=90n

UINREG DLTCH(24) DPWR DGND PREbar CLRbar Gate     
+ D23 D22 D21 D20 D19 D18 D17 D16 D15 D14 D13 D12 
+ D11 D10 D9 D8 D7 D6 D5 D4 D3 D2 D1 D0
+ Q23 Q22 Q21 Q20 Q19 Q18 Q17 Q16 Q15 Q14 Q13 Q12 
+ Q11 Q10 Q9 Q8 Q7 Q6 Q5 Q4 Q3 Q2 Q1 Q0
+ QN23 QN22 QN21 QN20 QN19 QN18 QN17 QN16 QN15 QN14 QN13 QN12 
+ QN11 QN10 QN9 QN8 QN7 QN6 QN5 QN4 QN3 QN2 QN1 QN0
+ REG_TIME IO_HCT
.MODEL REG_TIME UGFF (THDGMN={THDGMIN} TSUDGMN={TSUDGMIN})
.ends
*$

* ----------------------------------------------------------------------
*
*
*                              Memory
*
**************************************************************************

.subckt DC_RAM4 READ WRITE ADDRS 
+ R3 R2 R1 R0
+ W3 W2 W1 W0
+ OPTIONAL: DPWR=$G_DPWR DGND=$G_DGND
+ PARAMS: MNTYMXDLY=0 IO_LEVEL=0
+ PTPADHTY=0 PTPADLTY=0 PTPADHMN=0 PTPADLMN=0

*  First of three stages of RAM to help simulate the 3 clock delay to get the output
URAM RAM(1,4) DPWR DGND READ WRITE ADDRS
+ W3 W2 W1 W0
+ R3 R2 R1 R0
+ RAM_TIMING IO_HCT
+ MNTYMXDLY={MNTYMXDLY} IO_LEVEL={IO_LEVEL}

*  RAM timing to account for the propagation delays given in the spec
.MODEL RAM_TIMING URAM (TPADHTY={PTPADHTY} TPADLTY={PTPADLTY} 
+                       TPADHMN={PTPADHMN} TPADLMN={PTPADLMN} )
*.MODEL RAM_TIMING URAM (TPADHTY=20n TPADLTY=20n TPADHMN=10n TPADLMN=10n )
.ENDS
*$

.subckt DC_RAM6 READ WRITE ADDRS 
+ R5 R4 R3 R2 R1 R0
+ W5 W4 W3 W2 W1 W0
+ OPTIONAL: DPWR=$G_DPWR DGND=$G_DGND
+ PARAMS: MNTYMXDLY=0 IO_LEVEL=0
+ PTPADHTY=0 PTPADLTY=0 PTPADHMN=0 PTPADLMN=0

*  First of three stages of RAM to help simulate the 3 clock delay to get the output
URAM RAM(1,6) DPWR DGND READ WRITE ADDRS
+ W5 W4 W3 W2 W1 W0
+ R5 R4 R3 R2 R1 R0
+ RAM_TIMING IO_HCT
+ MNTYMXDLY={MNTYMXDLY} IO_LEVEL={IO_LEVEL}

*  RAM timing to account for the propagation delays given in the spec
.MODEL RAM_TIMING URAM (TPADHTY={PTPADHTY} TPADLTY={PTPADLTY} 
+                       TPADHMN={PTPADHMN} TPADLMN={PTPADLMN} )
*.MODEL RAM_TIMING URAM (TPADHTY=20n TPADLTY=20n TPADHMN=10n TPADLMN=10n )
.ENDS
*$

.subckt DC_RAM8 READ WRITE ADDRS 
+ R7 R6 R5 R4 R3 R2 R1 R0
+ W7 W6 W5 W4 W3 W2 W1 W0
+ OPTIONAL: DPWR=$G_DPWR DGND=$G_DGND
+ PARAMS: MNTYMXDLY=0 IO_LEVEL=0
+ PTPADHTY=0 PTPADLTY=0 PTPADHMN=0 PTPADLMN=0

*  First of three stages of RAM to help simulate the 3 clock delay to get the output
URAM RAM(1,8) DPWR DGND READ WRITE ADDRS
+ W7 W6 W5 W4 W3 W2 W1 W0
+ R7 R6 R5 R4 R3 R2 R1 R0
+ RAM_TIMING IO_HCT
+ MNTYMXDLY={MNTYMXDLY} IO_LEVEL={IO_LEVEL}

*  RAM timing to account for the propagation delays given in the spec
.MODEL RAM_TIMING URAM (TPADHTY={PTPADHTY} TPADLTY={PTPADLTY} 
+                       TPADHMN={PTPADHMN} TPADLMN={PTPADLMN} )
*.MODEL RAM_TIMING URAM (TPADHTY=20n TPADLTY=20n TPADHMN=10n TPADLMN=10n )
.ENDS
*$

.subckt DC_RAM10 READ WRITE ADDRS 
+ R9 R8 R7 R6 R5 R4 R3 R2 R1 R0
+ W9 W8 W7 W6 W5 W4 W3 W2 W1 W0
+ OPTIONAL: DPWR=$G_DPWR DGND=$G_DGND
+ PARAMS: MNTYMXDLY=0 IO_LEVEL=0
+ PTPADHTY=0 PTPADLTY=0 PTPADHMN=0 PTPADLMN=0

*  First of three stages of RAM to help simulate the 3 clock delay to get the output
URAM RAM(1,10) DPWR DGND READ WRITE ADDRS
+ W9 W8 W7 W6 W5 W4 W3 W2 W1 W0
+ R9 R8 R7 R6 R5 R4 R3 R2 R1 R0
+ RAM_TIMING IO_HCT
+ MNTYMXDLY={MNTYMXDLY} IO_LEVEL={IO_LEVEL}

*  RAM timing to account for the propagation delays given in the spec
.MODEL RAM_TIMING URAM (TPADHTY={PTPADHTY} TPADLTY={PTPADLTY} 
+                       TPADHMN={PTPADHMN} TPADLMN={PTPADLMN} )
*.MODEL RAM_TIMING URAM (TPADHTY=20n TPADLTY=20n TPADHMN=10n TPADLMN=10n )
.ENDS
*$

.subckt DC_RAM12 READ WRITE ADDRS 
+ R11 R10 R9 R8 R7 R6 R5 R4 R3 R2 R1 R0
+ W11 W10 W9 W8 W7 W6 W5 W4 W3 W2 W1 W0
+ OPTIONAL: DPWR=$G_DPWR DGND=$G_DGND
+ PARAMS: MNTYMXDLY=0 IO_LEVEL=0
+ PTPADHTY=0 PTPADLTY=0 PTPADHMN=0 PTPADLMN=0 PTPADHMX=0 PTPADLMX=0

*  First of three stages of RAM to help simulate the 3 clock delay to get the output
URAM RAM(1,12) DPWR DGND READ WRITE ADDRS
+ W11 W10 W9 W8 W7 W6 W5 W4 W3 W2 W1 W0
+ R11 R10 R9 R8 R7 R6 R5 R4 R3 R2 R1 R0
+ RAM_TIMING IO_HCT
+ MNTYMXDLY={MNTYMXDLY} IO_LEVEL={IO_LEVEL}

*  RAM timing to account for the propagation delays given in the spec
.MODEL RAM_TIMING URAM (TPADHTY={PTPADHTY} TPADLTY={PTPADLTY} 
+                       TPADHMN={PTPADHMN} TPADLMN={PTPADLMN} )
+                       TPADHMX={PTPADHMX} TPADLMX={PTPADLMX} )
.ENDS
*$

.subckt DC_RAM14 READ WRITE ADDRS 
+ R13 R12 R11 R10 R9 R8 R7 R6 R5 R4 R3 R2 R1 R0
+ W13 W12 W11 W10 W9 W8 W7 W6 W5 W4 W3 W2 W1 W0
+ OPTIONAL: DPWR=$G_DPWR DGND=$G_DGND
+ PARAMS: MNTYMXDLY=0 IO_LEVEL=0
+ PTPADHTY=0 PTPADLTY=0 PTPADHMN=0 PTPADLMN=0

*  First of three stages of RAM to help simulate the 3 clock delay to get the output
URAM RAM(1,14) DPWR DGND READ WRITE ADDRS
+ W13 W12 W11 W10 W9 W8 W7 W6 W5 W4 W3 W2 W1 W0
+ R13 R12 R11 R10 R9 R8 R7 R6 R5 R4 R3 R2 R1 R0
+ RAM_TIMING IO_HCT
+ MNTYMXDLY={MNTYMXDLY} IO_LEVEL={IO_LEVEL}

*  RAM timing to account for the propagation delays given in the spec
.MODEL RAM_TIMING URAM (TPADHTY={PTPADHTY} TPADLTY={PTPADLTY} 
+                       TPADHMN={PTPADHMN} TPADLMN={PTPADLMN} )
*.MODEL RAM_TIMING URAM (TPADHTY=20n TPADLTY=20n TPADHMN=10n TPADLMN=10n )
.ENDS
*$

.subckt DC_RAM16 READ WRITE ADDRS 
+ R15 R14 R13 R12 R11 R10 R9 R8 R7 R6 R5 R4 R3 R2 R1 R0
+ W15 W14 W13 W12 W11 W10 W9 W8 W7 W6 W5 W4 W3 W2 W1 W0
+ OPTIONAL: DPWR=$G_DPWR DGND=$G_DGND
+ PARAMS: MNTYMXDLY=0 IO_LEVEL=0
+ PTPADHTY=0 PTPADLTY=0 PTPADHMN=0 PTPADLMN=0

*  First of three stages of RAM to help simulate the 3 clock delay to get the output
URAM RAM(1,16) DPWR DGND READ WRITE ADDRS
+ W15 W14 W13 W12 W11 W10 W9 W8 W7 W6 W5 W4 W3 W2 W1 W0
+ R15 R14 R13 R12 R11 R10 R9 R8 R7 R6 R5 R4 R3 R2 R1 R0
+ RAM_TIMING IO_HCT
+ MNTYMXDLY={MNTYMXDLY} IO_LEVEL={IO_LEVEL}

*  RAM timing to account for the propagation delays given in the spec
.MODEL RAM_TIMING URAM (TPADHTY={PTPADHTY} TPADLTY={PTPADLTY} 
+                       TPADHMN={PTPADHMN} TPADLMN={PTPADLMN} )
*.MODEL RAM_TIMING URAM (TPADHTY=20n TPADLTY=20n TPADHMN=10n TPADLMN=10n )
.ENDS
*$

.subckt DC_RAM18 READ WRITE ADDRS 
+ R17 R16 R15 R14 R13 R12 R11 R10 R9 R8 R7 R6 R5 R4 R3 R2 R1 R0
+ W17 W16 W15 W14 W13 W12 W11 W10 W9 W8 W7 W6 W5 W4 W3 W2 W1 W0
+ OPTIONAL: DPWR=$G_DPWR DGND=$G_DGND
+ PARAMS: MNTYMXDLY=0 IO_LEVEL=0
+ PTPADHTY=0 PTPADLTY=0 PTPADHMN=0 PTPADLMN=0

*  First of three stages of RAM to help simulate the 3 clock delay to get the output
URAM RAM(1,18) DPWR DGND READ WRITE ADDRS
+ W17 W16 W15 W14 W13 W12 W11 W10 W9 W8 W7 W6 W5 W4 W3 W2 W1 W0
+ R17 R16 R15 R14 R13 R12 R11 R10 R9 R8 R7 R6 R5 R4 R3 R2 R1 R0
+ RAM_TIMING IO_HCT
+ MNTYMXDLY={MNTYMXDLY} IO_LEVEL={IO_LEVEL}

*  RAM timing to account for the propagation delays given in the spec
.MODEL RAM_TIMING URAM (TPADHTY={PTPADHTY} TPADLTY={PTPADLTY} 
+                       TPADHMN={PTPADHMN} TPADLMN={PTPADLMN} )
*.MODEL RAM_TIMING URAM (TPADHTY=20n TPADLTY=20n TPADHMN=10n TPADLMN=10n )
.ENDS
*$

.subckt DC_RAM22 READ WRITE ADDRS 
+ R21 R20 R19 R18 R17 R16 R15 R14 R13 R12 R11 R10 R9 R8 R7 R6 R5 R4 R3 R2 R1 R0
+ W21 W20 W19 W18 W17 W16 W15 W14 W13 W12 W11 W10 W9 W8 W7 W6 W5 W4 W3 W2 W1 W0
+ OPTIONAL: DPWR=$G_DPWR DGND=$G_DGND
+ PARAMS: MNTYMXDLY=0 IO_LEVEL=0
+ PTPADHTY=0 PTPADLTY=0 PTPADHMN=0 PTPADLMN=0

*  First of three stages of RAM to help simulate the 3 clock delay to get the output
URAM RAM(1,22) DPWR DGND READ WRITE ADDRS
+ W21 W20 W19 W18 W17 W16 W15 W14 W13 W12 W11 W10 W9 W8 W7 W6 W5 W4 W3 W2 W1 W0
+ R21 R20 R19 R18 R17 R16 R15 R14 R13 R12 R11 R10 R9 R8 R7 R6 R5 R4 R3 R2 R1 R0
+ RAM_TIMING IO_HCT
+ MNTYMXDLY={MNTYMXDLY} IO_LEVEL={IO_LEVEL}

*  RAM timing to account for the propagation delays given in the spec
.MODEL RAM_TIMING URAM (TPADHTY={PTPADHTY} TPADLTY={PTPADLTY} 
+                       TPADHMN={PTPADHMN} TPADLMN={PTPADLMN} )
*.MODEL RAM_TIMING URAM (TPADHTY=20n TPADLTY=20n TPADHMN=10n TPADLMN=10n )
.ENDS
*$

.subckt DC_RAM26 READ WRITE ADDRS 
+ R25 R24 R23 R22 R21 R20 R19 R18 R17 R16 R15 R14 
+ R13 R12 R11 R10 R9 R8 R7 R6 R5 R4 R3 R2 R1 R0
+ W25 W24 W23 W22 W21 W20 W19 W18 W17 W16 W15 W14 
+ W13 W12 W11 W10 W9 W8 W7 W6 W5 W4 W3 W2 W1 W0
+ OPTIONAL: DPWR=$G_DPWR DGND=$G_DGND
+ PARAMS: MNTYMXDLY=0 IO_LEVEL=0
+ PTPADHTY=0 PTPADLTY=0 PTPADHMN=0 PTPADLMN=0

*  First of three stages of RAM to help simulate the 3 clock delay to get the output
URAM RAM(1,26) DPWR DGND READ WRITE ADDRS
+ W25 W24 W23 W22 W21 W20 W19 W18 W17 W16 W15 W14 
+ W13 W12 W11 W10 W9 W8 W7 W6 W5 W4 W3 W2 W1 W0
+ R25 R24 R23 R22 R21 R20 R19 R18 R17 R16 R15 R14 
+ R13 R12 R11 R10 R9 R8 R7 R6 R5 R4 R3 R2 R1 R0
+ RAM_TIMING IO_HCT
+ MNTYMXDLY={MNTYMXDLY} IO_LEVEL={IO_LEVEL}

*  RAM timing to account for the propagation delays given in the spec
.MODEL RAM_TIMING URAM (TPADHTY={PTPADHTY} TPADLTY={PTPADLTY} 
+                       TPADHMN={PTPADHMN} TPADLMN={PTPADLMN} )
*.MODEL RAM_TIMING URAM (TPADHTY=20n TPADLTY=20n TPADHMN=10n TPADLMN=10n )
.ENDS
*$

* ----------------------------------------------------------------------
*
*
*                              Misc.
*
**************************************************************************

.SUBCKT DC_569 CLK_I GBAR_I U/DBAR_I ENPBAR_I ENTBAR_I LOADBAR_I ACLRBAR_I
+ SCLRBAR_I A_I B_I C_I D_I QA_O QB_O QC_O QD_O CCOBAR_O RCOBAR_O
+ OPTIONAL: DPWR=$G_DPWR DGND=$G_DGND
+ PARAMS: MNTYMXDLY=0 IO_LEVEL=0
*
UDFF DFF(4) DPWR DGND $D_HI ACLRBAR CLK DA DB DC DD QA QB QC QD 
+ QABAR QBBAR QCBAR QDBAR D0_EFF IO_F
*
UF569LOG LOGICEXP(20,19) DPWR DGND
+ CLK_I GBAR_I U/DBAR_I ENPBAR_I ENTBAR_I LOADBAR_I ACLRBAR_I SCLRBAR_I
+ A_I B_I C_I D_I QA QB QC QD QABAR QBBAR QCBAR QDBAR
+ CLK GBAR U/DBAR ENPBAR ENTBAR LOADBAR ACLRBAR SCLRBAR A B C D DA DB DC DD
+ CCOBAR RCOBAR IEN
+ D0_GATE IO_F IO_LEVEL={IO_LEVEL}
+ LOGIC:
+   CLK = { CLK_I }
+   GBAR = { GBAR_I }
+   ENPBAR = { ENPBAR_I }
+   ENTBAR = { ENTBAR_I }
+   U/DBAR = { U/DBAR_I }
+   LOADBAR = { LOADBAR_I }
+   ACLRBAR = { ACLRBAR_I }
+   SCLRBAR = { SCLRBAR_I }
+   A = { A_I }
+   B = { B_I }
+   C = { C_I }
+   D = { D_I }
+   UP = { U/DBAR }
+   DN = { ~U/DBAR }
+   ILC1 = { ~(SCLRBAR & LOADBAR) }
+   ILC2 = { ~ILC1 }
+   IEN = { ~(ENTBAR | ENPBAR | ILC1) }
+   IUD1 = { UP | DN }
+   IUD2 = { (UP & QA) | (DN & QABAR) }
+   IUD3 = { (UP & QA & QB) | (DN & QABAR & QBBAR) }
+   IUD4 = { (UP & QA & QB & QC) | (DN & QABAR & QBBAR & QCBAR) }
+   IA1 = { ~((~(IUD1 & IEN) ^ QA) & ILC2) }
+   IA2 = { ~(~(A & SCLRBAR) & ILC1) }
+   IB1 = { ~((~(IUD2 & IEN) ^ QB) & ILC2) }
+   IB2 = { ~(~(B & SCLRBAR) & ILC1) }
+   IC1 = { ~((~(IUD3 & IEN) ^ QC) & ILC2) }
+   IC2 = { ~(~(C & SCLRBAR) & ILC1) }
+   ID1 = { ~((~(IUD4 & IEN) ^ QD) & ILC2) }
+   ID2 = { ~(~(D & SCLRBAR) & ILC1) }
+   IRC1 = { UP & ~ENTBAR & QD & QC & QB & QA }
+   IRC2 = { DN & ~ENTBAR & QDBAR & QCBAR & QBBAR & QABAR }
+   DA = { IA1 & IA2 }
+   DB = { IB1 & IB2 }
+   DC = { IC1 & IC2 }
+   DD = { ID1 & ID2 }
+   RCOBAR = { ~(IRC1 | IRC2) }
+   CCOBAR = { ~(~RCOBAR & ~CLK & IEN) }
*
UF569DLY PINDLY (6,1,14) DPWR DGND
+ CCOBAR RCOBAR QA QB QC QD
+ GBAR
+ CLK GBAR ENPBAR ENTBAR LOADBAR SCLRBAR ACLRBAR U/DBAR U/DBAR A B C D IEN
+ CCOBAR_O RCOBAR_O QA_O QB_O QC_O QD_O
+ IO_F MNTYMXDLY={MNTYMXDLY} IO_LEVEL={IO_LEVEL}
+ BOOLEAN:
+   CLOCK = { CHANGED_LH(CLK,0) }
+   ACLEAR = { CHANGED_HL(ACLRBAR,0) }
+   CNTENT = { CHANGED(ENTBAR,0) }
+   CNTENP = { CHANGED(ENPBAR,0) }
+   ENABLE = { CHANGED_HL(GBAR,0) }
+   DISABLE = { CHANGED_LH(GBAR,0) }
+ PINDLY:
+   CCOBAR_O = {
+     CASE(
+       CHANGED(CLK,0) & TRN_LH, DELAY(0,0,0),
+       CHANGED(CLK,0) & TRN_HL, DELAY(0,0,0),
+       (CNTENP | CNTENT) & TRN_LH, DELAY(0,0,0),
+       CHANGED(LOADBAR,0) & TRN_LH, DELAY(0,0,0),
+       CHANGED(LOADBAR,0) & TRN_HL, DELAY(0,0,0),
+       (CNTENP | CNTENT) & TRN_HL, DELAY(0,0,0),
+       CHANGED(SCLRBAR,0) & TRN_LH, DELAY(0,0,0),
+       CHANGED(SCLRBAR,0) & TRN_HL, DELAY(0,0,0),
+       CHANGED(U/DBAR,0) & TRN_LH, DELAY(0,0,0),
+       ACLEAR, DELAY(0,0,0),
+       CHANGED(U/DBAR,0) & TRN_HL, DELAY(0,0,0), 
+       DELAY(0,0,0)
+       )
+     }
+   RCOBAR_O = {
+     CASE(
+       CNTENT & TRN_LH, DELAY(0,0,0),
+       CNTENT & TRN_HL, DELAY(0,0,0),
+       CHANGED(U/DBAR,0) & TRN_HL, DELAY(0,0,0),
+       CLOCK & TRN_HL, DELAY(0,0,0),
+       CHANGED(U/DBAR,0) & TRN_LH, DELAY(0,0,0),
+       CLOCK & TRN_LH, DELAY(0,0,0),
+       ACLEAR, DELAY(0,0,0),
+       DELAY(0,0,0)
+       )
+     }
+ TRISTATE:
+   ENABLE LO GBAR
+   QA_O QB_O QC_O QD_O = {
+     CASE(
+       DISABLE & TRN_LZ, DELAY(0,0,0),
+       DISABLE & TRN_HZ, DELAY(0,0,0),
+       ENABLE & TRN_ZH, DELAY(0,0,0),
+       ENABLE & TRN_ZL, DELAY(0,0,0),
+       CLOCK & TRN_LH, DELAY(0,0,0),
+       CLOCK & TRN_HL, DELAY(0,0,0),
+       ACLEAR, DELAY(0,0,0),
+       DELAY(0,0,0)
+       )
+     }
.ENDS
*
*$

.SUBCKT DC_95_1  MODE_I CLK1_I CLK2_I SER_I A_I B_I C_I D_I
+ QA_O QB_O QC_O QD_O