.model BZV55-B3V3 D(Is=30p Rs=.25 Cjo=308.7p M=.3 nbv=1.7 bv=3.6 Vj=.6 Isr=1.86n Nr=2 Ibv=20.245m Ibvl=1.96m Nbvl=15 Tbv1=-21.3u Vpk=3.3 mfg=Nexperia type=Zener)