* FILENAME:        NE681M03.CIR
* NEC PART NUMBER: NE681M03
* LAST MODIFIED:   11/98
* BIAS CONDITIONS: Vce=2.5V to 8V, Ic=0.3mA to 20mA
* FREQ RANGE:      0.1GHz to 5GHz
*
*
*                            CCBpkg
*                   ,--------||-----------.
*                   |                     |
*                   |        CCB          |
*                   |    .---||---.       |
*  BASE             |    |        |       |   COLLECTOR
*                   |    |   /----o-------o--Lcx------o
*  o-------Lbx------o-LB-o--|Q1   |       |
*                        B   \   --       |
*                            |   -- CCE  --
*                          E o----'      -- CCEpkg
*                            |            |
*                           LE            |
*                            o------------'
*                            |
*                            |
*                           Lex
*                            | 
*                            o EMITTER
*
*       CCB    = 0.07pF           LB  = 0.3nH
*       CCE    = 0.01pF           LE  = 0.8nH
*       CCBpkg = 0.08pF           Lbx = 0.12nH
*       CCEpkg = 0.08pF           Lcx = 0.10nH
*                                 Lex = 0.12nH
*
Q1  5 7 8 NE68100
CCB 7 5 0.07E-12
CCE 5 8 0.01E-12
LE  8 6 0.8E-9
LB  4 7 0.3E-9
CCBPKG 4 5 0.08E-12
CCEPKG 5 6 0.08E-12
LBX 1 4 0.12E-9
LCX 5 2 0.10E-9
LEX 6 3 0.12E-9
.MODEL NE68100 NPN 
+( IS=239.6e-18  BF=125           NF=0.9854      VAF=12           IKF=0.2 
+ ISE=1.933e-6   NE=50            BR=18.25       NR=0.9771        VAR=10
+ IKR=11.81e-3   ISC=1.55e-18     NC=1.86        RE=0.87          RB=4
+ RBM=5.2        IRB=1e-6         RC=4.635       CJE=1.2e-12      VJE=0.77
+ MJE=0.4844     CJC=0.4e-12      VJC=0.5275     MJC=0.223        XCJC=0
+ CJS=0.0        VJS=0.750        MJS=0.0        FC=0.50          TF=10e-12         
+ XTF=25.0       VTF=0.4          ITF=0.13       PTF=43.1         TR=0.3e-9                
+ EG=1.11        XTB=0.0          XTI=3.0        KF=0.0           AF=1.0 )
