* FILENAME:        NE68818.CIR
* NEC PART NUMBER: NE68818
* LAST MODIFIED:   5/97
* BIAS CONDITIONS: Vce=1V to 5V, Ic=1mA to 10mA
* FREQ RANGE:      0.5GHZ to 6GHZ
*
*                        CCBpkg
*               ,--------||-----------.
*               |                     |
*               |        CCB          |
*               |    .---||---.       |
*  BASE         |    |        |       | COLLECTOR
*               |    |   /----o--LC---o---Lcx---o
*  o---Lbx------o-LB-o--|Q1   |       |
*               |    B   \   --       |
*               |        |   -- CCE  --
*        CBEpkg--      E o----'      -- CCEpkg
*              --        |            |
*               |       LE            |
*               '--------o------------'
*                        |
*                       Lex
*                        |
*                        o EMITTER
*
*       CCB    = 0.24pF           LB  = 0.9nH
*       CCE    = 0.27pF           LE  = 0.7nH
*                                 LC  = 0.52nH
*       CCBpkg = 0.001pF          Lbx = 0.18nH
*       CCEpkg = 0.07pF           Lcx = 0.18nH
*       CBEpkg = 0.11pF           Lex = 0.09nH
*
*                   c b e
.SUBCKT NE68818/CEL 2 1 3
Q1  8 7 9 NE68800
CCB 7 8 0.24E-12
CCE 8 9 0.27E-12
LE  9 6 0.7E-9
LB  4 7 0.9E-9
LC  8 5 0.52E-9
CBEPKG 4 6 0.11E-12
CCBPKG 4 5 0.001E-12
CCEPKG 5 6 0.07E-12
LBX 1 4 0.18E-9
LCX 5 2 0.18E-9
LEX 6 3 0.09E-9
.MODEL NE68800 NPN 
+(IS=3.80e-16    BF=135.7         NF=1           VAF=28           IKF=0.6 
+ ISE=3.8e-15    NE=1.49          BR=12.3        NR=1.1           VAR=3.5
+ IKR=0.06       ISC=3.5e-16      NC=1.62        RE=0.4           RB=6.14  
+ RBM=3.5        IRB=0.001        RC=4.2         CJE=0.796e-12    VJE=0.71 
+ MJE=0.38       CJC=0.549e-12    VJC=0.65       MJC=0.48         XCJC=0.56
+ CJS=0          VJS=0.75         MJS=0          FC=0.75          TF=11.0e-12    
+ XTF=0.36       VTF=0.65         ITF=0.61       PTF=50           TR=0.032e-9
+ EG=1.11        XTB=0            XTI=3          KF=1.5e-14       AF=1.22 )
.ENDS
*$

