* FILENAME:         NE68833.CIR
* NEC PART NUMBER:  NE68833
* LAST MODIFIED:    7/97
* BIAS CONDITIONS:  Vce=1V to 5V, Ic=1mA to 10mA
* FREQ RANGE:       0.05GHz to 5GHz
*
*                            CCBpkg
*                    .-------||--------.  
*                    |          CCB    |   
*                    |      .--||---.  |       COLLECTOR
* BASE               |      |        | |             
*                    |      |   /----o-o-----o--Lcx--o  
*            o--Lbx--o-LB---o--|Q1   |       |       
*                    |      B   \   --       --      
*                    |          |   -- CCE   -- CCEpkg
*                    --CBEpkg E o----'       |           
*                    --         |            |      
*                    |         LE            |       
*                    `----------o------------'       
*                               |                   
*                               Lex            
*                               |  
*                               o EMITTER
*                                
*       CCB    = 0.24pF          LB  = 0.77nH             
*       CCE    = 0.27pF          LE  = 0.95nH           
*       CCBpkg = 0.15pF          Lbx = 0.3nH          
*       CCEpkg = 0.1pF           Lcx = 0.4nH             
*       CBEpkg = 0.1pF           Lex = 0.3nH
*
*                   c b e        
.SUBCKT NE68833/CEL 2 1 3
Q1  5 7 8 NE68800
CCB 7 5 0.24E-12
CCE 5 8 0.27E-12
LE  8 6 0.95E-9
LB  4 7 0.77E-9
CCBPKG 4 5 0.15E-12
CCEPKG 5 6 0.1E-12
CBEPKG 4 6 0.1E-12
LBX 1 4 0.3E-9
LCX 5 2 0.4E-9
LEX 6 3 0.3E-9
.MODEL NE68800 NPN 
+(IS=3.80e-16    BF=135.7         NF=1           VAF=28           IKF=0.6 
+ ISE=3.8e-15    NE=1.49          BR=12.3        NR=1.1           VAR=3.5
+ IKR=0.06       ISC=3.5e-16      NC=1.62        RE=0.4           RB=6.14  
+ RBM=3.5        IRB=0.001        RC=4.2         CJE=0.796e-12    VJE=0.71 
+ MJE=0.38       CJC=0.549e-12    VJC=0.65       MJC=0.48         XCJC=0.56
+ CJS=0          VJS=0.75         MJS=0          FC=0.75          TF=11.0e-12    
+ XTF=0.36       VTF=0.65         ITF=0.61       PTF=50           TR=0.032e-9
+ EG=1.11        XTB=0            XTI=3          KF=1.5e-14       AF=1.22 )
.ENDS
*$

