* FILENAME:         NE68718.CIR
* NEC PART NUMBER:  NE68718
* LAST MODIFIED:    5/96 
* BIAS CONDITIONS:  Vce=1V to 2V, Ic=1mA to 10mA
* FREQ RANGE:       0.05GHz to 5GHz
*
*                            CCBpkg
*                   ,--------||-----------.
*                   |                     |
*                   |        CCB          |
*                   |    .---||---.       |
*  BASE             |    |        |       | COLLECTOR
*                   |    |   /----o--LC---o---Lcx---o
*  o-------Lbx------o-LB-o--|Q1   |       |    
*                   |    B   \   --       |    
*                   |        |   -- CCE  --    
*            CBEpkg--      E o----'      -- CCEpkg
*                  --        |            |     
*                   |       LE            |     
*                   '--------o------------'     
*                            |
*                           Lex
*                            |
*                            o EMITTER
*
*       CCB    = 0.26pF           LB  = 1.51nH
*       CCE    = 0.19pF           LE  = 0.71nH
*                                 LC  = 1.18nH
*       CCBpkg = 0.063pF          Lbx = 0.18nH
*       CCEpkg = 0.409pF          Lcx = 0.18nH
*       CBEpkg = 0.361pF          Lex = 0.09nH
*
*                   c b e
.SUBCKT NE68718/CEL 2 1 3
Q1  8 7 9 NE68700
CCB 7 8 0.26E-12
CCE 8 9 0.19E-12
LE  9 6 0.71E-9
LB  4 7 1.51E-9
LC  8 5 1.18E-9
CBEPKG 4 6 0.361E-12
CCBPKG 4 5 0.063E-12
CCEPKG 5 6 0.409E-12
LBX 1 4 0.18E-9
LCX 5 2 0.18E-9
LEX 6 3 0.09E-9
.MODEL NE68700 NPN 
+(IS=8.0e-17     BF=128           NF=1           VAF=17           IKF=0.18
+ ISE=3.3e-15    NE=1.48          BR=9.05        NR=1.05          VAR=4.3
+ IKR=0.009      ISC=4.0e-15      NC=1.5         RE=0.8           RB=11.1  
+ RBM=2.46       IRB=0.017        RC=7.5         CJE=0.415e-12    VJE=0.68 
+ MJE=0.53       CJC=0.102e-12    VJC=0.29       MJC=0.53         XCJC=0.27
+ CJS=0          VJS=0.75         MJS=0          FC=0.37          TF=6.0e-12
+ XTF=11.9       VTF=9.55         ITF=1.78       PTF=69.1         TR=1.0e-9
+ EG=1.11        XTB=0            XTI=3          KF=0             AF=1 )
.ENDS
*$

