* FILENAME:        NE68819.CIR
* NEC PART NUMBER: NE68819
* LAST MODIFIED:   3/97
* BIAS CONDITIONS: Vce=1V to 3V, Ic=1mA to 10mA
* FREQ RANGE:      0.1GHZ to 3GHZ
*
*                     CCBpkg
*             .-------||--------.
*             |          CCB    |
*             |      .--||---.  |     COLLECTOR
* BASE        |      |        | |
*             |      |   /----o-o-----o--Lcx--o
*     o--Lbx--o-LB---o--|Q1   |       |
*             |      B   \   --       --
*             |          |   -- CCE   -- CCEpkg
*             --CBEpkg E o----'       |
*             --         |            |
*             |         LE            |
*             `----------o------------'
*                        |
*                        Lex
*                        |
*                        o EMITTER
*
*       CCB   = 0.24pF           LB  = 1.12nH             
*       CCE   = 0.27pF           LE  = 0.6nH           
*       CCBpkg= 0.08pF           Lbx = 0.19nH          
*       CCEpkg= 0.3pF            Lcx = 0.5nH             
*       CBEpkg= 0.3pF            Lex = 0.19nH          
*
*
*                   c b e
.SUBCKT NE68819/CEL 2 1 3
Q1  5 7 8 NE68800
CCB 7 5 0.24E-12
CCE 5 8 0.27E-12
LE  8 6 0.6E-9
LB  4 7 1.12E-9
CBEPKG 4 6 0.3E-12
CCBPKG 4 5 0.08E-12
CCEPKG 5 6 0.3E-12
LBX 1 4 0.19E-9
LCX 5 2 0.5E-9
LEX 6 3 0.19E-9
.MODEL NE68800 NPN 
+(IS=3.8e-16     BF=135.7         NF=1           VAF=28           IKF=0.6 
+ ISE=3.8e-15    NE=1.49          BR=12.3        NR=1.1           VAR=3.5
+ IKR=0.06       ISC=3.5e-16      NC=1.62        RE=0.4           RB=6.14  
+ RBM=3.5        IRB=0.001        RC=4.2         CJE=0.796e-12    VJE=0.71 
+ MJE=0.38       CJC=0.549e-12    VJC=0.65       MJC=0.48         XCJC=0.56
+ CJS=0.0        VJS=0.750        MJS=0.0        FC=0.75          TF=11e-12    
+ XTF=0.36       VTF=0.65         ITF=0.61       PTF=50.0         TR=0.032e-9
+ EG=1.11        XTB=0            XTI=3          KF=1.5e-14       AF=1.22 )
.ENDS
*$

