* FILENAME:         NE68135.CIR
* NEC PART NUMBER:  NE68135
* LAST MODIFIED:    11/96
* BIAS CONDITIONS:  Vce=8V, Ic=7mA to 30mA
* FREQ RANGE:       0.05GHz to 5GHz
*
*                            CCBpkg
*       .--------------------||-------------.  
*       |                       CCB         |   
*       |                   .--||---.       |        
*       |                   |        |      |             COLLECTOR
* BASE  |                   |   /----o--LC--o--o--Lcx--Rcx--o--o
*  o--o-o--Rbx--Lbx--o-LB---o--|Q1   |         |            |
*     |              |      B   \   --         --           |
*     |              |          |   -- CCE     -- CCEpkg    |
*     |              --CBEpkg  Eo----'         |            --
*     |              --         |              |            -- CCEx_pkg
*     |              |          Lex            |            | 
*    --              |          |              |            |
*    -- CBEx_pkg     |          Rex            |            |
*     |              |          |              |            |
*     '--------------o----------o--------------o------------'
*                               |
*                               o EMITTER
*       CCB    = 0.07pF         LB  = 0.45nH    Rbx = 0.1 ohms          
*       CCE    = 0.01pF       LC  = 0.96nH      Rex = 0.1 ohms
*       CCBpkg = 0.11pF         Lbx = 0.15nH    Rcx = 0.1 ohms
*       CCEpkg = 0.2pF        Lcx = 0.15nH      CBEx_pkg = 0.1pF
*       CBEpkg = 0.05pF       Lex = 0.38nH      CCEx_pkg = 0.2pF
*                   c b e 
.SUBCKT NE68135/CEL 2 1 3
Q1  11 10 9 NE68100
CCB 10 11 0.07E-12
CCE 11  9 0.01E-12
LB   7 10 0.45E-9
LC   8 11 0.96E-9
CBEPKG 7 3 0.05E-12
CCEPKG 8 3 0.2E-12
CCBPKG 1 8 0.11E-12
LBX 4 7 0.15E-9
LEX 9 6 0.38E-9
LCX 5 8 0.15E-9
RBX 1 4 0.1
REX 6 3 0.1
RCX 2 5 0.1
CBEX_PKG 1 3 0.1E-12
CCEX_PKG 2 3 0.2E-12
.MODEL NE68100 NPN 
+( IS=2.7e-16    BF=185           NF=1.02        VAF=15           IKF=0.055
+ ISE=1.77e-11   NE=2.1           BR=1           NR=1             VAR=0  
+ IKR=0          ISC=0            NC=2           RE=0.6           RB=12  
+ RBM=3.7        IRB=1.2e-5       RC=8           CJE=1.2e-12      VJE=0.77 
+ MJE=0.5        CJC=0.8e-12      VJC=0.27       MJC=0.56         XCJC=0  
+ CJS=0          VJS=0.75         MJS=0          FC=0.5           TF=14e-12
+ XTF=3          VTF=25           ITF=0.1        PTF=0            TR=0.3e-9
+ EG=1.11        XTB=0            XTI=3          KF=0             AF=1 )
*
* NOTE:  CEL develops models using the Libra simulator.  For this simulator, 
*        a value of 0 for IKR is interpreted as infinity.
.ENDS
*$

