* FILENAME:        NE687M03.CIR
* NEC PART NUMBER: NE687M03
* LAST MODIFIED:   11/98
* BIAS CONDITIONS: Vce=0.5V to 2.5V, Ic=0.5mA to 30mA
* FREQ RANGE:      0.1GHz to 5GHz
* Hfe:		 108 at Vce=2v, Ic=20mA
*
*                            CCBpkg
*                   ,--------||-----------.
*                   |                     |
*                   |        CCB          |
*                   |    .---||---.       |
*  BASE             |    |        |       |   COLLECTOR
*                   |    |   /----o-------o--Lcx------o
*  o-------Lbx------o-LB-o--|Q1   |       |
*                        B   \   --       |
*                            |   -- CCE  --
*                          E o----'      -- CCEpkg
*                            |            |
*                           LE            |
*                            o------------'
*                            |
*                            |
*                           Lex
*                            | 
*                            o EMITTER
*
*       CCB    = 0.26pF           LB  = 0.4nH
*       CCE    = 0.19pF           LE  = 0.7nH
*       CCBpkg = 0.08pF           Lbx = 0.12nH
*       CCEpkg = 0.08pF           Lcx = 0.10nH
*                                 Lex = 0.12nH
*
Q1  5 7 8 NE68700
CCB 7 5 0.26E-12
CCE 5 8 0.19E-12
LE  8 6 0.7E-9
LB  4 7 0.4E-9
CCBPKG 4 5 0.08E-12
CCEPKG 5 6 0.08E-12
LBX 1 4 0.12E-9
LCX 5 2 0.10E-9
LEX 6 3 0.12E-9
.MODEL NE68700 NPN 
+( IS=302.3e-18  BF=104           NF=1.038       VAF=10           IKF=0.370
+ ISE=1e-6       NE=31.19         BR=17.54       NR=1.023         VAR=30
+ IKR=8.369e-3   ISC=81.93e-12    NC=4.986       RE=0.80          RB=11.10
+ RBM=2.46       IRB=17e-3        RC=4.477       CJE=0.415e-12    VJE=0.68
+ MJE=0.53       CJC=0.102e-12    VJC=0.8        MJC=0.53         XCJC=0.27
+ CJS=0.0        VJS=0.750        MJS=0.0        FC=0.37          TF=5e-12         
+ XTF=8          VTF=0.06         ITF=1.0        PTF=69.1         TR=1e-9                
+ EG=1.11        XTB=0.0          XTI=3.0        KF=0.0           AF=1.0 )
