* FILENAME:         NE685M03.CIR
* NEC PART NUMBER:  NE685M03
* LAST MODIFIED:    11/98
* BIAS CONDITIONS:  Vce=0.5V to 3.0V, Ic=0.5mA to 20mA
* FREQ RANGE:       0.1GHz to 4.0GHz
*
*                        CCBpkg
*               ,--------||-----------.
*               |                     |
*               |        CCB          |
*               |    .---||---.       |
*  BASE         |    |        |       |       COLLECTOR
*               |    |   /----o-------o--------Lcx----o
*  o---Lbx------o-LB-o--|Q1   |       |         
*                    B   \   --       |         
*                        |   -- CCE  --         
*                      E o----'      -- CCEpkg  
*                        |            |     
*                       LE            |     
*                        o------------'     
*                        |
*                        |
*                       Lex
*                        | 
*                        o EMITTER
*      
*       CCB    = 0.13pF           LB  = 0.3nH
*       CCE    = 0.14pF           LE  = 0.8nH
*       CCBpkg = 0.08pF           Lbx = 0.12nH
*       CCEpkg = 0.08pF           Lcx = 0.10nH
*                                 Lex = 0.12nH
*
* Q1 model parameters are as follows:
Q1  5 7 8 NE68500
CCB 7 5 0.13E-12
CCE 5 8 0.14E-12
LE  8 6 0.8E-9
LB  4 7 0.3E-9
CCBPKG 4 5 0.08E-12
CCEPKG 5 6 0.08E-12
LBX 1 4 0.12E-9
LCX 5 2 0.10E-9
LEX 6 3 0.12E-9
.MODEL NE68500 NPN 
+( IS=8.98e-17    BF=107.1         NF=0.99        VAF=22           IKF=0.55  
+ ISE=1e-6        NE=31.10         BR=16.06       NR=0.98          VAR=6
+ IKR=8.02e-3     ISC=0            NC=2           RE=0.6           RB=10
+ RBM=8.34        IRB=0.009        RC=5.07        CJE=0.50e-12     VJE=0.95
+ MJE=0.5         CJC=1.10e-13     VJC=0.56       MJC=0.19         XCJC=0
+ CJS=0           VJS=0.75         MJS=0          FC=0.5           TF=4.0e-12
+ XTF=12          VTF=1            ITF=0.04       PTF=120          TR=1.0e-9
+ EG=1.11         XTB=0            XTI=3          KF=0             AF=1   )
