* FILENAME:         NE68618.CIR
* NEC PART NUMBER:  NE68618
* LAST MODIFIED:    6/96
* BIAS CONDITIONS:  Vce=2.5V to 3V, Ic=0.3mA to 5mA
* FREQ RANGE:       0.1GHz to 3.0GHz
*
*                     CCBpkg
*             .-------||--------.
*             |          CCB    |
*             |      .--||---.  |     COLLECTOR
* BASE        |      |        | |
*             |      |   /----o-o-----o--Lcx--o
*     o--Lbx--o-LB---o--|Q1   |       |
*             |      B   \   --       --
*             |          |   -- CCE   -- CCEpkg
*             --CBEpkg E o----'       |
*             --         |            |
*             |         LE            |
*             `----------o------------'
*                        |
*                        Lex            
*                        |  
*                        o EMITTER
*                         
*       CCB   = 0.180pF          LB  = 0.004nH
*       CCE   = 0.180pF          LE  = 0.004nH
*       CCBpkg= 0.008pF          Lbx = 1.35nH
*       CCEpkg= 0.150pF          Lcx = 0.950nH
*       CBEpkg= 0.057pF          Lex = 0.900nH
*
*                   c b e
.SUBCKT NE68618/CEL 2 1 3
Q1  5 7 8 NE68600
CCB 7 5 0.18E-12
CCE 5 8 0.18E-12
LE  8 6 0.004E-9
LB  4 7 0.004E-9
CCBPKG 4 5 0.008E-12
CCEPKG 5 6 0.15E-12
CBEPKG 4 6 0.057E-12
LBX 1 4 1.35E-9
LCX 5 2 0.95E-9
LEX 6 3 0.9E-9
.MODEL NE68600 NPN 
+( IS=32.7e-18   BF=154.7         NF=0.994       VAF=45           IKF=0.102
+ ISE=2.52e-13   NE=2.49          BR=1.20        NR=0.998         VAR=2.44
+ IKR=40         ISC=56.9e-18     NC=1.04        RE=1.6           RB=15  
+ RBM=3          IRB=7.59e-4      RC=8           CJE=0.175e-12    VJE=1.04
+ MJE=0.322      CJC=0.087e-12    VJC=0.766      MJC=0.59         XCJC=0.1 
+ CJS=0          VJS=0.750        MJS=0          FC=0.5           TF=8.50e-12
+ XTF=0.39       VTF=0.668        ITF=0.06       PTF=60           TR=0  
+ EG=1.11        XTB=0            XTI=3          KF=0             AF=1 )
.ENDS
*$

