* FILENAME:         NE85633.CIR
* NEC PART NUMBER:  NE85633
* LAST MODIFIED:    7/97
* BIAS CONDITIONS:  Vce=1V to 10V, Ic=1mA to 20mA
* FREQ RANGE:       0.1GHz to 8GHz
*
*                            CCBpkg
*                    .-------||--------.  
*                    |          CCB    |   
*                    |      .--||---.  |       COLLECTOR
* BASE               |      |        | |             
*                    |      |   /----o-o-----o--Lcx--o  
*            o--Lbx--o-LB---o--|Q1   |       |       
*                    |      B   \   --       --      
*                    |          |   -- CCE   -- CCEpkg
*                    --CBEpkg E o----'       |           
*                    --         |            |      
*                    |         LE            |       
*                    `----------o------------'       
*                               |                   
*                               Lex            
*                               |  
*                               o EMITTER
*                    
*       CCB    = 0.09pF          LB  = 0.85nH             
*       CCE    = 0.16pF          LE  = 1nH           
*       CCBpkg = 0.15pF          Lbx = 0.3nH          
*       CCEpkg = 0.15pF          Lcx = 0.4nH             
*       CBEpkg = 0.07pF          Lex = 0.3nH          
*
*                   c b e
.SUBCKT NE85633/CEL 2 1 3
Q1  5 7 8 NE85600
CCB 7 5 0.09E-12
CCE 5 8 0.16E-12
LE  8 6 1E-9
LB  4 7 0.85E-9
CCBPKG 4 5 0.15E-12
CCEPKG 5 6 0.15E-12
CBEPKG 4 6 0.07E-12
LBX 1 4 0.3E-9
LCX 5 2 0.4E-9
LEX 6 3 0.3E-9
.MODEL NE85600 NPN 
+( IS=6e-16      BF=120           NF=0.978       VAF=10           IKF=0.08 
+ ISE=32e-16     NE=1.93          BR=12          NR=0.991         VAR=3.9 
+ IKR=0.17       ISC=0            NC=2           RE=0.38          RB=4.16
+ RBM=3.6        IRB=1.96e-4      RC=2           CJE=2.8e-12      VJE=1.3  
+ MJE=0.5        CJC=1.1e-12      VJC=0.7        MJC=0.55         XCJC=0.3   
+ CJS=0          VJS=0.75         MJS=0          FC=0.5           TF=15e-12
+ XTF=6          VTF=10           ITF=0.2        PTF=0            TR=1e-9
+ EG=1.11        XTB=0            XTI=3          KF=1.56e-18      AF=1.49 )
.ENDS
*$

