* FILENAME:         NE856M03.CIR
* NEC PART NUMBER:  NE856M03
* LAST MODIFIED:    11/98
* BIAS CONDITIONS:  Vce=0.5V to 10V, Ic=0.5mA to 10mA
* FREQ RANGE:       0.1GHz to 4.0GHz
*
*                     CCBpkg
*             .-------||--------.
*             |          CCB    |
*             |      .--||---.  |     COLLECTOR
* BASE        |      |        | |
*             |      |   /----o-o-----o--Lcx--o
*     o--Lbx--o-LB---o--|Q1   |       |
*                    B   \   --       --
*                        |   -- CCE   -- CCEpkg
*                      E o----'       |
*                        |            |
*                       LE            |
*                        o------------'
*                        |
*                        |
*                        Lex
*                        |
*                        |
*                        o EMITTER
*
*       CCB   = 0.087pF          LB  = 0.5nH
*       CCE   = 0.16pF           LE  = 0.6nH
*       CCBpkg= 0.08pF           Lbx = 0.12nH
*       CCEpkg= 0.08pF           Lcx = 0.10nH
*                                Lex = 0.12nH
*
Q1  5 7 8 NE85600
CCB 7 5 0.087E-12
CCE 5 8 0.16E-12
LE  8 6 0.6E-9
LB  4 7 0.5E-9
CCBPKG 4 5 0.08E-12
CCEPKG 5 6 0.08E-12
LBX 1 4 0.12E-9
LCX 5 2 0.10E-9
LEX 6 3 0.12E-9
.MODEL NE85600 NPN 
+( IS=9.2e-16    BF=110.3         NF=1.01        VAF=18           IKF=1.0
+ ISE=4.89e-9    NE=4.37          BR=10.08       NR=1.0           VAR=8
+ IKR=0.03       ISC=3.32e-11     NC=3.95        RE=0.33          RB=1.26
+ RBM=2          IRB=0.05         RC=6.63        CJE=2.8e-12      VJE=1.3
+ MJE=0.5        CJC=1.1e-12      VJC=0.7        MJC=0.55         XCJC=0.3
+ CJS=0          VJS=0.75         MJS=0          FC=0.5           TF=4.0e-12
+ XTF=30         VTF=0.69         ITF=0.06       PTF=0            TR=1.0e-9
+ EG=1.11        XTB=0            XTI=3          KF=1.56e-18      AF=1.49)
