* FILENAME:         NE85618.CIR
* NEC PART NUMBER:  NE85618
* LAST MODIFIED:    7/97
* BIAS CONDITIONS:  Vce=2.5V to 10V, Ic=3mA to 10mA
* FREQ RANGE:       0.05GHz to 5.0GHz
*
*                        CCBpkg
*               ,--------||-----------.
*               |                     |
*               |        CCB          |
*               |    .---||---.       |
*  BASE         |    |        |       | COLLECTOR
*               |    |   /----o--LC---o---Lcx---o
*  o---Lbx------o-LB-o--|Q1   |       |
*               |    B   \   --       |
*               |        |   -- CCE  --
*        CBEpkg--      E o----'      -- CCEpkg
*              --        |            |
*               |       LE            |
*               '--------o------------'
*                        |
*                       Lex
*                        |
*                        o EMITTER
*
*       CCB    = 0.087pF          LB  = 1.29nH
*       CCE    = 0.16pF           LE  = 0.62nH
*                                 LC  = 1.04nH
*       CCBpkg = 0.054pF          Lbx = 0.18nH
*       CCEpkg = 0.44pF           Lcx = 0.41nH
*       CBEpkg = 0.33pF           Lex = 0.09nH
*
*                   c b e
.SUBCKT NE85618/CEL 2 1 3
Q1  8 7 9 NE85600
CCB 7 8 0.087E-12
CCE 8 9 0.16E-12
LE  9 6 0.62E-9
LB  4 7 1.29E-9
LC  8 5 1.04E-9
CBEPKG 4 6 0.33E-12
CCBPKG 4 5 0.054E-12
CCEPKG 5 6 0.44E-12
LBX 1 4 0.18E-9
LCX 5 2 0.41E-9
LEX 6 3 0.09E-9
.MODEL NE85600 NPN 
+( IS=6e-16      BF=120           NF=0.978       VAF=10           IKF=0.08
+ ISE=32e-16     NE=1.93          BR=12          NR=0.991         VAR=3.9
+ IKR=0.17       ISC=0            NC=2           RE=0.38          RB=4.16
+ RBM=3.6        IRB=1.96e-4      RC=2           CJE=2.8e-12      VJE=1.3
+ MJE=0.5        CJC=1.1e-12      VJC=0.7        MJC=0.55         XCJC=0.3
+ CJS=0          VJS=0.75         MJS=0          FC=0.5           TF=10e-12
+ XTF=6          VTF=10           ITF=0.2        PTF=0            TR=1e-9
+ EG=1.11        XTB=0            XTI=3          KF=1.56e-18      AF=1.49 )
.ENDS
*$

