* FILENAME:         NE85635.MDL
* NEC PART NUMBER:  NE85635
* LAST MODIFIED:    7/97
* BIAS CONDITIONS:  Vce=10V, Ic=7mA to 30mA
* FREQ RANGE:       0.05GHz to 5GHz
*
*                            CCBpkg
*       .--------------------||-------------.  
*       |                       CCB         |   
*       |                   .--||---.       |        
*       |                   |        |      |             COLLECTOR
* BASE  |                   |   /----o--LC--o--o--Lcx--Rcx--o--o
*  o--o-o--Rbx--Lbx--o-LB---o--|Q1   |         |            |
*     |              |      B   \   --         --           |
*     |              |          |   -- CCE     -- CCEpkg    |
*     |              --CBEpkg  Eo----'         |            --
*     |              --         |              |            -- CCEx_pkg
*     |              |          Lex            |            | 
*    --              |          |              |            |
*    -- CBEx_pkg     |          Rex            |            |
*     |              |          |              |            |
*     '--------------o----------o--------------o------------'
*                               |
*                               o EMITTER
*                    
*       CCB    = 0.09pF         LB  = 0.77nH    Rbx = 0.1 ohms          
*       CCE    = 0.16pF LC  = 0.45nH            Rex = 0.1 ohms
*       CCBpkg = 0.05pF Lbx = 0.15nH            Rcx = 0.1 ohms
*       CCEpkg = 0.2pF     Lcx = 0.15nH        CBEx_pkg = 0.1pF 
*       CBEpkg = 0.05pF    Lex = 0.23nH        CCEx_pkg = 0.2pF
*                   c b e
.SUBCKT NE85635/CEL 2 1 3
Q1  11 10 9 NE85600
CCB 10 11 0.09E-12
CCE 11  9 0.16E-12
LB   7 10 0.77E-9
LC   8 11 0.45E-9
CBEPKG 7 3 0.05E-12
CCEPKG 8 3 0.2E-12
CCBPKG 1 8 0.05E-12
LBX 4 7 0.15E-9
LEX 9 6 0.23E-9
LCX 5 8 0.15E-9
RBX 1 4 0.1
REX 6 3 0.1
RCX 2 5 0.1
CBEX_PKG 1 3 0.1E-12
CCEX_PKG 2 3 0.2E-12
.MODEL NE85600 NPN 
+( IS=6e-16      BF=120           NF=0.978       VAF=10           IKF=0.08
+ ISE=32e-16     NE=1.93          BR=12          NR=0.991         VAR=3.9 
+ IKR=0.17       ISC=0            NC=2           RE=0.38          RB=4.16
+ RBM=3.6        IRB=1.96e-4      RC=2           CJE=2.8e-12      VJE=1.3  
+ MJE=0.5        CJC=1.1e-12      VJC=0.7        MJC=0.55         XCJC=0.3   
+ CJS=0          VJS=0.75         MJS=0          FC=0.5           TF=10e-12
+ XTF=6          VTF=10           ITF=0.2        PTF=0            TR=1e-9
+ EG=1.11        XTB=0            XTI=3          KF=1.56e-18      AF=1.49 )
.ENDS
*$

