* FILENAME:         NE94433.CIR
* NEC PART NUMBER:  NE94433
* LAST MODIFIED:    6/96
* BIAS CONDITIONS:  Vce=3V, Ic=3mA and 50mA
* FREQ RANGE:       0.05GHz to 2.6GHz
*
*                          CCBpkg
*                 ,--------||-----------.
*                 |                     |
*                 |        CCB          |
*                 |    .---||---.       |
*  BASE           |    |        |       | COLLECTOR
*                 |    |   /----o-------o---Lcx---o
*  o---Lbx-------o-LB-o--|Q1    |       |
*                 |    B   \   --       |
*                 |        |   -- CCE  --
*                 |      E o----'      -- CCEpkg
*                 --CBEpkg |            |
*                 --      LE            |
*                 |        |            |
*                 ---------o------------'
*                          |
*                          Lex
*                          |
*                          o EMITTER
*
*       CCB    = 0.08pF            LB  = 0.98nH
*       CCE    = 0.08pF            LE  = 0.38nH
*       CCBpkg = 0.02pF            Lbx = 0.18nH
*       CCEpkg = 0.19pF            Lex = 0.61nH
*       CBEpkg = 0.1pF             Lcx = 0.68nH
*
*                   c b e
.SUBCKT NE94433/CEL 2 1 3
Q1  5 7 8 NE94400
CCB 7 5 0.08E-12
CCE 5 8 0.08E-12
LE  8 6 0.38E-9
LB  4 7 0.98E-9
CCBPKG 4 5 0.02E-12
CCEPKG 5 6 0.19E-12
CBEPKG 4 6 0.1E-12
LBX 1 4 0.18E-9
LCX 5 2 0.61E-9
LEX 6 3 0.68E-9
.MODEL NE94400 NPN
+( IS=8.0e-16    BF=128           NF=0.99        VAF=36           IKF=0.06
+ ISE=1.0e-14    NE=1.48          BR=5           NR=0.99          VAR=10 
+ IKR=0.01       ISC=3.0e-16      NC=1.07        RE=0.33          RB=12  
+ RBM=3          IRB=0.14         RC=5           CJE=1.1e-12      VJE=0.7
+ MJE=0.5        CJC=5.0e-13      VJC=0.75       MJC=0.3          XCJC=0.8
+ CJS=0          VJS=0.75         MJS=0          FC=0.5           TF=5.5e-11 
+ XTF=30         VTF=3.7          ITF=0.05       PTF=0            TR=8.5e-10
+ EG=1.11        XTB=0            XTI=3          KF=3.73e-12      AF=1.7 )
.ENDS
*$

