* FILENAME:        UPA806T.CIR
* NEC PART NUMBER: UPA806T
* LAST MODIFIED:   10/98
* BIAS CONDITIONS: Vce=0.5V to 5V, Ic=1mA to 10mA
* FREQ RANGE:      0.1GHZ to 3GHZ
*
*  This model schematic is too complex to be put in this format.
*  Please contact CEL at (408)988-3500 for the schematic and documentation or
*  download the model from our website, www.cel.com.
*
*                   c1 b1 e1 c2 b2 e2
.SUBCKT UPA806T/CEL P6 P5 P4 P1 P2 P3 
Q1      2 1  3 NE68500
Q2      5 4  6 NE68500
CCB1      2  1  0.14pF  
C_E1B2    5  3  0.1pF  
CCB2      4  5  0.14pF  
CCE2      4  6  0.13pF  
C_C2E2    4  7  0.1pF  
C_C2B2    4  8  0.06pF  
C_B1B2    8  9  0.05pF  
C_C1B1    2  9  0.1pF  
C_C1B2    2  8  0.07pF  
CCE1      3  2  0.13pF  
C_C1E1   10  2  0.05pF  
LC_X1    P1  2  0.05nH  
LE_X1    P2 10  0.05nH  
LC_X2    P3  4  0.05nH  
LE_X2     7 P4  0.05nH  
LB_X2     8 P5  0.05nH  
LB_X1     9 P6  0.05nH  
LB1       1  9  0.55nH  
LB2       5  8  0.9nH  
LE2       6  7  1nH  
LE1      10  3  1.1nH  
C_E1C2    4 10  0.05pF  
C_B2E2    7  8  0.05pF  
.MODEL NE68500 NPN 
+( IS=7e-16       BF=109           NF=1           VAF=15           IKF=0.19  
+ ISE=7.9e-13     NE=2.19          BR=1           NR=1.08          VAR=12.4   
+ IKR=0           ISC=0            NC=2           RE=1.3           RB=10
+ RBM=8.34        IRB=0.009        RC=10          CJE=0.4e-12      VJE=0.812
+ MJE=0.5         CJC=0.18e-12     VJC=0.75       MJC=0.34         XCJC=0
+ CJS=0           VJS=0.75         MJS=0          FC=0.5           TF=3e-12
+ XTF=5.2         VTF=4.58         ITF=0.011      PTF=0            TR=1e-9
+ EG=1.11         XTB=0            XTI=3          KF=0             AF=1 )
*
* NOTE:  CEL develops models using the Libra simulator.
*        For this simulator, a value of 0 for
*        IKR is interpreted as infinity.
.ENDS
*$

