****************************************
* (c)1999 Thomatronik GmbH             *
*   info@thomatronik.de                *
*                                      *
* Author: Arpad Buermen                *
*   Arpad.Burmen@ieee.org              *
****************************************

.MODEL CG1 D (
+   N=2.18697
+  IS=5.44577E-008
+  RS=0.0466672
+  EG=1.50717
+ XTI=3.11941
+ CJO=4.3083E-011
+  VJ=0.21
+   M=0.338692
+  FC=0.5
+  TT=6.25549E-006
+  BV=1400
+ IBV=0.005
+  KF=0
+  AF=1 )
