.TRAN .001 2
*INCLUDE FUSE.LIB
*INCLUDE DEVICE.LIB
*INCLUDE THERMAL.LIB
