* SIMetrix model library

* Copyright (C) 1998 Newbury Technology Ltd. All rights reserved.
* 
* These models are believed to be accurate but Newbury Technology Ltd.
* offers no guarantee as to their fitness for any purpose nor do they
* accept any responsibility for damage caused directly or indirectly
* by their use.
*
*
* 2.10.98



* Air gap 0

.subckt tx3_4F1_80 P1 P2 S1 S2 Q1 Q2 params: 
+ N1 10
+ N2 10
+ N3 10
+ Ae 31e-6
+ Le 47e-3
+ Ue 80
+ K12 0.99
+ K23 0.99
+ K13 0.99

L1 NN1 P2 1
L2 NN2 S2 1
L3 NN3 Q2 1
F1 P2 NN1 B1 1
F2 S2 NN2 B2 1
F3 Q2 NN3 B3 1

* perm of free space
.param u0 1.25663e-6

* polarity of coils
* Note for the purposes of calculating saturation
* characteristics, this model assumes all windings 
* are closely coupled to the core
.param sign1 { IFF((k12>=0 && k23<0  && k13>=0  || k12<0 && k23>=0 && k13<0 ), -1, 1) }
.param sign2 { IFF((k12>=0 && k23>=0 && K13<0   || k12<0 && k23>0  && K13>=0), -1, 1) }
.param sign3 { IFF((K12>=0 && K23<0  && k13<0   || K12<0 && K23>=0 && k13>=0), -1, 1) }

* material dependent
.param ui 80

.param winding1_scale {Ae/Le*N1*u0*ue/ui}
.param winding2_scale {Ae/Le*N2*u0*ue/ui}
.param winding3_scale {Ae/Le*N3*u0*ue/ui}
.param Ue_scale {ue/ui/Le}



B1 P1 P2 V=v(ue)* (v(NN1,p2)*N1     +v(NN2,s2)*N2*K12 +v(NN3,q2)*N3*K13) *winding1_scale
B2 S1 S2 V=v(ue)* (v(NN1,p2)*N1*K12 +v(NN2,s2)*N2     +v(NN3,q2)*N3*K23) *winding2_scale
B3 Q1 Q2 V=v(ue)* (v(NN1,p2)*N1*K13 +v(NN2,s2)*N2*K23 +v(NN3,q2)*N3)     *winding3_scale

Bcore Ue 0 v=
+ table[
+ -9120.11, 4.43269,
+ -8317.64, 4.7479,
+ -7585.78, 5.08552,
+ -6918.31, 5.44714,
+ -6309.57, 5.83449,
+ -5754.4, 6.24938,
+ -5248.07, 6.69377,
+ -4786.3, 7.16976,
+ -4365.16, 7.67959,
+ -3981.07, 8.22569,
+ -3630.78, 8.81061,
+ -3311.31, 9.43713,
+ -3019.95, 10.1082,
+ -2754.23, 10.827,
+ -2511.89, 11.5969,
+ -2290.87, 12.4215,
+ -2089.3, 13.3048,
+ -1905.46, 14.2509,
+ -1737.8, 15.2643,
+ -1584.89, 16.3497,
+ -1445.44, 17.5124,
+ -1318.26, 18.7577,
+ -1202.26, 20.0915,
+ -1096.48, 21.5202,
+ -1000, 23.0505,
+ -912.011, 24.6896,
+ -831.764, 26.4453,
+ -758.578, 28.3258,
+ -691.831, 30.34,
+ -630.957, 32.4975,
+ -575.44, 34.8084,
+ -524.807, 37.2836,
+ -478.63, 39.9348,
+ -436.516, 42.7745,
+ -398.107, 45.8162,
+ -363.078, 49.0742,
+ -331.131, 52.5638,
+ -301.995, 56.3016,
+ -275.423, 60.3052,
+ -251.189, 64.5935,
+ -229.087, 69.1867,
+ -208.93, 73.6763,
+ -190.546, 75.7913,
+ -173.78, 77.142,
+ -158.489, 78.1497,
+ -144.544, 78.8824,
+ -131.826, 79.3955,
+ -120.226, 79.7344,
+ -109.648, 79.9362,
+ -1, 80,
+ 1, 80,
+ 109.648, 79.9362,
+ 120.226, 79.7344,
+ 131.826, 79.3955,
+ 144.544, 78.8824,
+ 158.489, 78.1497,
+ 173.78, 77.142,
+ 190.546, 75.7913,
+ 208.93, 73.6763,
+ 229.087, 69.1867,
+ 251.189, 64.5935,
+ 275.423, 60.3052,
+ 301.995, 56.3016,
+ 331.131, 52.5638,
+ 363.078, 49.0742,
+ 398.107, 45.8162,
+ 436.516, 42.7745,
+ 478.63, 39.9348,
+ 524.807, 37.2836,
+ 575.44, 34.8084,
+ 630.957, 32.4975,
+ 691.831, 30.34,
+ 758.578, 28.3258,
+ 831.764, 26.4453,
+ 912.011, 24.6896,
+ 1000, 23.0505,
+ 1096.48, 21.5202,
+ 1202.26, 20.0915,
+ 1318.26, 18.7577,
+ 1445.44, 17.5124,
+ 1584.89, 16.3497,
+ 1737.8, 15.2643,
+ 1905.46, 14.2509,
+ 2089.3, 13.3048,
+ 2290.87, 12.4215,
+ 2511.89, 11.5969,
+ 2754.23, 10.827,
+ 3019.95, 10.1082,
+ 3311.31, 9.43713,
+ 3630.78, 8.81061,
+ 3981.07, 8.22569,
+ 4365.16, 7.67959,
+ 4786.3, 7.16976,
+ 5248.07, 6.69377,
+ 5754.4, 6.24938,
+ 6309.57, 5.83449,
+ 6918.31, 5.44714,
+ 7585.78, 5.08552,
+ 8317.64, 4.7479,
+ 9120.11, 4.43269]
+ ((i(b1)*N1*sign1+i(b2)*N2*sign2+i(b3)*N3*sign3)*Ue_scale)
.ends

* Air gap 0.001

.subckt tx3_4F1_74 P1 P2 S1 S2 Q1 Q2 params: 
+ N1 10
+ N2 10
+ N3 10
+ Ae 31e-6
+ Le 47e-3
+ Ue 74
+ K12 0.99
+ K23 0.99
+ K13 0.99

L1 NN1 P2 1
L2 NN2 S2 1
L3 NN3 Q2 1
F1 P2 NN1 B1 1
F2 S2 NN2 B2 1
F3 Q2 NN3 B3 1

* perm of free space
.param u0 1.25663e-6

* polarity of coils
* Note for the purposes of calculating saturation
* characteristics, this model assumes all windings 
* are closely coupled to the core
.param sign1 { IFF((k12>=0 && k23<0  && k13>=0  || k12<0 && k23>=0 && k13<0 ), -1, 1) }
.param sign2 { IFF((k12>=0 && k23>=0 && K13<0   || k12<0 && k23>0  && K13>=0), -1, 1) }
.param sign3 { IFF((K12>=0 && K23<0  && k13<0   || K12<0 && K23>=0 && k13>=0), -1, 1) }

* material dependent
.param ui 74

.param winding1_scale {Ae/Le*N1*u0*ue/ui}
.param winding2_scale {Ae/Le*N2*u0*ue/ui}
.param winding3_scale {Ae/Le*N3*u0*ue/ui}
.param Ue_scale {ue/ui/Le}



B1 P1 P2 V=v(ue)* (v(NN1,p2)*N1     +v(NN2,s2)*N2*K12 +v(NN3,q2)*N3*K13) *winding1_scale
B2 S1 S2 V=v(ue)* (v(NN1,p2)*N1*K12 +v(NN2,s2)*N2     +v(NN3,q2)*N3*K23) *winding2_scale
B3 Q1 Q2 V=v(ue)* (v(NN1,p2)*N1*K13 +v(NN2,s2)*N2*K23 +v(NN3,q2)*N3)     *winding3_scale

Bcore Ue 0 v=
+ table[
+ -9120.11, 4.45459,
+ -8317.64, 4.77258,
+ -7585.78, 5.11331,
+ -6918.31, 5.47842,
+ -6309.57, 5.86966,
+ -5754.4, 6.28888,
+ -5248.07, 6.73809,
+ -4786.3, 7.21943,
+ -4365.16, 7.73521,
+ -3981.07, 8.28787,
+ -3630.78, 8.88005,
+ -3311.31, 9.51455,
+ -3019.95, 10.1944,
+ -2754.23, 10.9228,
+ -2511.89, 11.7031,
+ -2290.87, 12.5391,
+ -2089.3, 13.4346,
+ -1905.46, 14.3939,
+ -1737.8, 15.4213,
+ -1584.89, 16.5216,
+ -1445.44, 17.6998,
+ -1318.26, 18.9613,
+ -1202.26, 20.3117,
+ -1096.48, 21.757,
+ -1000, 23.3036,
+ -912.011, 24.9581,
+ -831.764, 26.7275,
+ -758.578, 28.6194,
+ -691.831, 30.6413,
+ -630.957, 32.8014,
+ -575.44, 35.1081,
+ -524.807, 37.5711,
+ -478.63, 40.1957,
+ -436.516, 42.995,
+ -398.107, 45.977,
+ -363.078, 49.1508,
+ -331.131, 52.526,
+ -301.995, 56.1116,
+ -275.423, 59.9166,
+ -251.189, 63.9495,
+ -229.087, 68.0557,
+ -208.93, 70.2157,
+ -190.546, 71.4428,
+ -173.78, 72.358,
+ -158.489, 73.0247,
+ -144.544, 73.494,
+ -131.826, 73.8129,
+ -120.226, 73.9918,
+ -109.648, 74.0728,
+ -1, 74.0741,
+ 1, 74.0741,
+ 109.648, 74.0728,
+ 120.226, 73.9918,
+ 131.826, 73.8129,
+ 144.544, 73.494,
+ 158.489, 73.0247,
+ 173.78, 72.358,
+ 190.546, 71.4428,
+ 208.93, 70.2157,
+ 229.087, 68.0557,
+ 251.189, 63.9495,
+ 275.423, 59.9166,
+ 301.995, 56.1116,
+ 331.131, 52.526,
+ 363.078, 49.1508,
+ 398.107, 45.977,
+ 436.516, 42.995,
+ 478.63, 40.1957,
+ 524.807, 37.5711,
+ 575.44, 35.1081,
+ 630.957, 32.8014,
+ 691.831, 30.6413,
+ 758.578, 28.6194,
+ 831.764, 26.7275,
+ 912.011, 24.9581,
+ 1000, 23.3036,
+ 1096.48, 21.757,
+ 1202.26, 20.3117,
+ 1318.26, 18.9613,
+ 1445.44, 17.6998,
+ 1584.89, 16.5216,
+ 1737.8, 15.4213,
+ 1905.46, 14.3939,
+ 2089.3, 13.4346,
+ 2290.87, 12.5391,
+ 2511.89, 11.7031,
+ 2754.23, 10.9228,
+ 3019.95, 10.1944,
+ 3311.31, 9.51455,
+ 3630.78, 8.88005,
+ 3981.07, 8.28787,
+ 4365.16, 7.73521,
+ 4786.3, 7.21943,
+ 5248.07, 6.73809,
+ 5754.4, 6.28888,
+ 6309.57, 5.86966,
+ 6918.31, 5.47842,
+ 7585.78, 5.11331,
+ 8317.64, 4.77258,
+ 9120.11, 4.45459]
+ ((i(b1)*N1*sign1+i(b2)*N2*sign2+i(b3)*N3*sign3)*Ue_scale)
.ends

* Air gap 0.002

.subckt tx3_4F1_68 P1 P2 S1 S2 Q1 Q2 params: 
+ N1 10
+ N2 10
+ N3 10
+ Ae 31e-6
+ Le 47e-3
+ Ue 68
+ K12 0.99
+ K23 0.99
+ K13 0.99

L1 NN1 P2 1
L2 NN2 S2 1
L3 NN3 Q2 1
F1 P2 NN1 B1 1
F2 S2 NN2 B2 1
F3 Q2 NN3 B3 1

* perm of free space
.param u0 1.25663e-6

* polarity of coils
* Note for the purposes of calculating saturation
* characteristics, this model assumes all windings 
* are closely coupled to the core
.param sign1 { IFF((k12>=0 && k23<0  && k13>=0  || k12<0 && k23>=0 && k13<0 ), -1, 1) }
.param sign2 { IFF((k12>=0 && k23>=0 && K13<0   || k12<0 && k23>0  && K13>=0), -1, 1) }
.param sign3 { IFF((K12>=0 && K23<0  && k13<0   || K12<0 && K23>=0 && k13>=0), -1, 1) }

* material dependent
.param ui 68

.param winding1_scale {Ae/Le*N1*u0*ue/ui}
.param winding2_scale {Ae/Le*N2*u0*ue/ui}
.param winding3_scale {Ae/Le*N3*u0*ue/ui}
.param Ue_scale {ue/ui/Le}



B1 P1 P2 V=v(ue)* (v(NN1,p2)*N1     +v(NN2,s2)*N2*K12 +v(NN3,q2)*N3*K13) *winding1_scale
B2 S1 S2 V=v(ue)* (v(NN1,p2)*N1*K12 +v(NN2,s2)*N2     +v(NN3,q2)*N3*K23) *winding2_scale
B3 Q1 Q2 V=v(ue)* (v(NN1,p2)*N1*K13 +v(NN2,s2)*N2*K23 +v(NN3,q2)*N3)     *winding3_scale

Bcore Ue 0 v=
+ table[
+ -9120.11, 4.47647,
+ -8317.64, 4.79722,
+ -7585.78, 5.14105,
+ -6918.31, 5.50962,
+ -6309.57, 5.9047,
+ -5754.4, 6.32821,
+ -5248.07, 6.78218,
+ -4786.3, 7.2688,
+ -4365.16, 7.79041,
+ -3981.07, 8.3495,
+ -3630.78, 8.94875,
+ -3311.31, 9.59101,
+ -3019.95, 10.2793,
+ -2754.23, 11.0169,
+ -2511.89, 11.8072,
+ -2290.87, 12.6539,
+ -2089.3, 13.5609,
+ -1905.46, 14.5324,
+ -1737.8, 15.5726,
+ -1584.89, 16.6862,
+ -1445.44, 17.8781,
+ -1318.26, 19.1533,
+ -1202.26, 20.5172,
+ -1096.48, 21.9754,
+ -1000, 23.5337,
+ -912.011, 25.1979,
+ -831.764, 26.9743,
+ -758.578, 28.869,
+ -691.831, 30.8885,
+ -630.957, 33.0391,
+ -575.44, 35.327,
+ -524.807, 37.7583,
+ -478.63, 40.339,
+ -436.516, 43.0744,
+ -398.107, 45.9697,
+ -363.078, 49.0308,
+ -331.131, 52.2549,
+ -301.995, 55.652,
+ -275.423, 59.2203,
+ -251.189, 62.944,
+ -229.087, 65.3148,
+ -208.93, 66.4607,
+ -190.546, 67.3158,
+ -173.78, 67.9408,
+ -158.489, 68.3838,
+ -144.544, 68.6834,
+ -131.826, 68.8713,
+ -120.226, 68.9585,
+ -1, 68.9655,
+ 1, 68.9655,
+ 120.226, 68.9585,
+ 131.826, 68.8713,
+ 144.544, 68.6834,
+ 158.489, 68.3838,
+ 173.78, 67.9408,
+ 190.546, 67.3158,
+ 208.93, 66.4607,
+ 229.087, 65.3148,
+ 251.189, 62.944,
+ 275.423, 59.2203,
+ 301.995, 55.652,
+ 331.131, 52.2549,
+ 363.078, 49.0308,
+ 398.107, 45.9697,
+ 436.516, 43.0744,
+ 478.63, 40.339,
+ 524.807, 37.7583,
+ 575.44, 35.327,
+ 630.957, 33.0391,
+ 691.831, 30.8885,
+ 758.578, 28.869,
+ 831.764, 26.9743,
+ 912.011, 25.1979,
+ 1000, 23.5337,
+ 1096.48, 21.9754,
+ 1202.26, 20.5172,
+ 1318.26, 19.1533,
+ 1445.44, 17.8781,
+ 1584.89, 16.6862,
+ 1737.8, 15.5726,
+ 1905.46, 14.5324,
+ 2089.3, 13.5609,
+ 2290.87, 12.6539,
+ 2511.89, 11.8072,
+ 2754.23, 11.0169,
+ 3019.95, 10.2793,
+ 3311.31, 9.59101,
+ 3630.78, 8.94875,
+ 3981.07, 8.3495,
+ 4365.16, 7.79041,
+ 4786.3, 7.2688,
+ 5248.07, 6.78218,
+ 5754.4, 6.32821,
+ 6309.57, 5.9047,
+ 6918.31, 5.50962,
+ 7585.78, 5.14105,
+ 8317.64, 4.79722,
+ 9120.11, 4.47647]
+ ((i(b1)*N1*sign1+i(b2)*N2*sign2+i(b3)*N3*sign3)*Ue_scale)
.ends

* Air gap 0.005

.subckt tx3_4F1_57 P1 P2 S1 S2 Q1 Q2 params: 
+ N1 10
+ N2 10
+ N3 10
+ Ae 31e-6
+ Le 47e-3
+ Ue 57
+ K12 0.99
+ K23 0.99
+ K13 0.99

L1 NN1 P2 1
L2 NN2 S2 1
L3 NN3 Q2 1
F1 P2 NN1 B1 1
F2 S2 NN2 B2 1
F3 Q2 NN3 B3 1

* perm of free space
.param u0 1.25663e-6

* polarity of coils
* Note for the purposes of calculating saturation
* characteristics, this model assumes all windings 
* are closely coupled to the core
.param sign1 { IFF((k12>=0 && k23<0  && k13>=0  || k12<0 && k23>=0 && k13<0 ), -1, 1) }
.param sign2 { IFF((k12>=0 && k23>=0 && K13<0   || k12<0 && k23>0  && K13>=0), -1, 1) }
.param sign3 { IFF((K12>=0 && K23<0  && k13<0   || K12<0 && K23>=0 && k13>=0), -1, 1) }

* material dependent
.param ui 57

.param winding1_scale {Ae/Le*N1*u0*ue/ui}
.param winding2_scale {Ae/Le*N2*u0*ue/ui}
.param winding3_scale {Ae/Le*N3*u0*ue/ui}
.param Ue_scale {ue/ui/Le}



B1 P1 P2 V=v(ue)* (v(NN1,p2)*N1     +v(NN2,s2)*N2*K12 +v(NN3,q2)*N3*K13) *winding1_scale
B2 S1 S2 V=v(ue)* (v(NN1,p2)*N1*K12 +v(NN2,s2)*N2     +v(NN3,q2)*N3*K23) *winding2_scale
B3 Q1 Q2 V=v(ue)* (v(NN1,p2)*N1*K13 +v(NN2,s2)*N2*K23 +v(NN3,q2)*N3)     *winding3_scale

Bcore Ue 0 v=
+ table[
+ -9120.11, 4.54189,
+ -8317.64, 4.87085,
+ -7585.78, 5.22383,
+ -6918.31, 5.60257,
+ -6309.57, 6.00896,
+ -5754.4, 6.445,
+ -5248.07, 6.91282,
+ -4786.3, 7.4147,
+ -4365.16, 7.95306,
+ -3981.07, 8.5305,
+ -3630.78, 9.14973,
+ -3311.31, 9.81364,
+ -3019.95, 10.5253,
+ -2754.23, 11.2879,
+ -2511.89, 12.1048,
+ -2290.87, 12.9795,
+ -2089.3, 13.9156,
+ -1905.46, 14.9169,
+ -1737.8, 15.9872,
+ -1584.89, 17.1303,
+ -1445.44, 18.3502,
+ -1318.26, 19.6506,
+ -1202.26, 21.0354,
+ -1096.48, 22.5081,
+ -1000, 24.072,
+ -912.011, 25.73,
+ -831.764, 27.4845,
+ -758.578, 29.3375,
+ -691.831, 31.29,
+ -630.957, 33.3423,
+ -575.44, 35.4936,
+ -524.807, 37.742,
+ -478.63, 40.0844,
+ -436.516, 42.5162,
+ -398.107, 45.0315,
+ -363.078, 47.6229,
+ -331.131, 50.2832,
+ -301.995, 52.9805,
+ -275.423, 54.636,
+ -251.189, 55.4337,
+ -229.087, 56.0234,
+ -208.93, 56.4514,
+ -190.546, 56.753,
+ -173.78, 56.9558,
+ -158.489, 57.0827,
+ -144.544, 57.1383,
+ -1, 57.1429,
+ 1, 57.1429,
+ 144.544, 57.1383,
+ 158.489, 57.0827,
+ 173.78, 56.9558,
+ 190.546, 56.753,
+ 208.93, 56.4514,
+ 229.087, 56.0234,
+ 251.189, 55.4337,
+ 275.423, 54.636,
+ 301.995, 52.9805,
+ 331.131, 50.2832,
+ 363.078, 47.6229,
+ 398.107, 45.0315,
+ 436.516, 42.5162,
+ 478.63, 40.0844,
+ 524.807, 37.742,
+ 575.44, 35.4936,
+ 630.957, 33.3423,
+ 691.831, 31.29,
+ 758.578, 29.3375,
+ 831.764, 27.4845,
+ 912.011, 25.73,
+ 1000, 24.072,
+ 1096.48, 22.5081,
+ 1202.26, 21.0354,
+ 1318.26, 19.6506,
+ 1445.44, 18.3502,
+ 1584.89, 17.1303,
+ 1737.8, 15.9872,
+ 1905.46, 14.9169,
+ 2089.3, 13.9156,
+ 2290.87, 12.9795,
+ 2511.89, 12.1048,
+ 2754.23, 11.2879,
+ 3019.95, 10.5253,
+ 3311.31, 9.81364,
+ 3630.78, 9.14973,
+ 3981.07, 8.5305,
+ 4365.16, 7.95306,
+ 4786.3, 7.4147,
+ 5248.07, 6.91282,
+ 5754.4, 6.445,
+ 6309.57, 6.00896,
+ 6918.31, 5.60257,
+ 7585.78, 5.22383,
+ 8317.64, 4.87085,
+ 9120.11, 4.54189]
+ ((i(b1)*N1*sign1+i(b2)*N2*sign2+i(b3)*N3*sign3)*Ue_scale)
.ends

* Air gap 0.01

.subckt tx3_4F1_44 P1 P2 S1 S2 Q1 Q2 params: 
+ N1 10
+ N2 10
+ N3 10
+ Ae 31e-6
+ Le 47e-3
+ Ue 44
+ K12 0.99
+ K23 0.99
+ K13 0.99

L1 NN1 P2 1
L2 NN2 S2 1
L3 NN3 Q2 1
F1 P2 NN1 B1 1
F2 S2 NN2 B2 1
F3 Q2 NN3 B3 1

* perm of free space
.param u0 1.25663e-6

* polarity of coils
* Note for the purposes of calculating saturation
* characteristics, this model assumes all windings 
* are closely coupled to the core
.param sign1 { IFF((k12>=0 && k23<0  && k13>=0  || k12<0 && k23>=0 && k13<0 ), -1, 1) }
.param sign2 { IFF((k12>=0 && k23>=0 && K13<0   || k12<0 && k23>0  && K13>=0), -1, 1) }
.param sign3 { IFF((K12>=0 && K23<0  && k13<0   || K12<0 && K23>=0 && k13>=0), -1, 1) }

* material dependent
.param ui 44

.param winding1_scale {Ae/Le*N1*u0*ue/ui}
.param winding2_scale {Ae/Le*N2*u0*ue/ui}
.param winding3_scale {Ae/Le*N3*u0*ue/ui}
.param Ue_scale {ue/ui/Le}



B1 P1 P2 V=v(ue)* (v(NN1,p2)*N1     +v(NN2,s2)*N2*K12 +v(NN3,q2)*N3*K13) *winding1_scale
B2 S1 S2 V=v(ue)* (v(NN1,p2)*N1*K12 +v(NN2,s2)*N2     +v(NN3,q2)*N3*K23) *winding2_scale
B3 Q1 Q2 V=v(ue)* (v(NN1,p2)*N1*K13 +v(NN2,s2)*N2*K23 +v(NN3,q2)*N3)     *winding3_scale

Bcore Ue 0 v=
+ table[
+ -9120.11, 4.64988,
+ -8317.64, 4.99206,
+ -7585.78, 5.35968,
+ -6918.31, 5.75458,
+ -6309.57, 6.17875,
+ -5754.4, 6.63426,
+ -5248.07, 7.12331,
+ -4786.3, 7.64822,
+ -4365.16, 8.21142,
+ -3981.07, 8.8154,
+ -3630.78, 9.46278,
+ -3311.31, 10.1562,
+ -3019.95, 10.8984,
+ -2754.23, 11.6921,
+ -2511.89, 12.5398,
+ -2290.87, 13.4443,
+ -2089.3, 14.4079,
+ -1905.46, 15.4328,
+ -1737.8, 16.5209,
+ -1584.89, 17.6736,
+ -1445.44, 18.892,
+ -1318.26, 20.1764,
+ -1202.26, 21.5263,
+ -1096.48, 22.9406,
+ -1000, 24.4171,
+ -912.011, 25.9525,
+ -831.764, 27.5425,
+ -758.578, 29.1817,
+ -691.831, 30.8636,
+ -630.957, 32.5806,
+ -575.44, 34.3242,
+ -524.807, 36.0852,
+ -478.63, 37.8536,
+ -436.516, 39.6195,
+ -398.107, 41.3726,
+ -363.078, 42.7268,
+ -331.131, 43.2785,
+ -301.995, 43.6747,
+ -275.423, 43.9617,
+ -251.189, 44.1648,
+ -229.087, 44.3029,
+ -208.93, 44.3906,
+ -190.546, 44.4376,
+ -1, 44.4444,
+ 1, 44.4444,
+ 190.546, 44.4376,
+ 208.93, 44.3906,
+ 229.087, 44.3029,
+ 251.189, 44.1648,
+ 275.423, 43.9617,
+ 301.995, 43.6747,
+ 331.131, 43.2785,
+ 363.078, 42.7268,
+ 398.107, 41.3726,
+ 436.516, 39.6195,
+ 478.63, 37.8536,
+ 524.807, 36.0852,
+ 575.44, 34.3242,
+ 630.957, 32.5806,
+ 691.831, 30.8636,
+ 758.578, 29.1817,
+ 831.764, 27.5425,
+ 912.011, 25.9525,
+ 1000, 24.4171,
+ 1096.48, 22.9406,
+ 1202.26, 21.5263,
+ 1318.26, 20.1764,
+ 1445.44, 18.892,
+ 1584.89, 17.6736,
+ 1737.8, 16.5209,
+ 1905.46, 15.4328,
+ 2089.3, 14.4079,
+ 2290.87, 13.4443,
+ 2511.89, 12.5398,
+ 2754.23, 11.6921,
+ 3019.95, 10.8984,
+ 3311.31, 10.1562,
+ 3630.78, 9.46278,
+ 3981.07, 8.8154,
+ 4365.16, 8.21142,
+ 4786.3, 7.64822,
+ 5248.07, 7.12331,
+ 5754.4, 6.63426,
+ 6309.57, 6.17875,
+ 6918.31, 5.75458,
+ 7585.78, 5.35968,
+ 8317.64, 4.99206,
+ 9120.11, 4.64988]
+ ((i(b1)*N1*sign1+i(b2)*N2*sign2+i(b3)*N3*sign3)*Ue_scale)
.ends

* Air gap 0.02

.subckt tx3_4F1_30 P1 P2 S1 S2 Q1 Q2 params: 
+ N1 10
+ N2 10
+ N3 10
+ Ae 31e-6
+ Le 47e-3
+ Ue 30
+ K12 0.99
+ K23 0.99
+ K13 0.99

L1 NN1 P2 1
L2 NN2 S2 1
L3 NN3 Q2 1
F1 P2 NN1 B1 1
F2 S2 NN2 B2 1
F3 Q2 NN3 B3 1

* perm of free space
.param u0 1.25663e-6

* polarity of coils
* Note for the purposes of calculating saturation
* characteristics, this model assumes all windings 
* are closely coupled to the core
.param sign1 { IFF((k12>=0 && k23<0  && k13>=0  || k12<0 && k23>=0 && k13<0 ), -1, 1) }
.param sign2 { IFF((k12>=0 && k23>=0 && K13<0   || k12<0 && k23>0  && K13>=0), -1, 1) }
.param sign3 { IFF((K12>=0 && K23<0  && k13<0   || K12<0 && K23>=0 && k13>=0), -1, 1) }

* material dependent
.param ui 30

.param winding1_scale {Ae/Le*N1*u0*ue/ui}
.param winding2_scale {Ae/Le*N2*u0*ue/ui}
.param winding3_scale {Ae/Le*N3*u0*ue/ui}
.param Ue_scale {ue/ui/Le}



B1 P1 P2 V=v(ue)* (v(NN1,p2)*N1     +v(NN2,s2)*N2*K12 +v(NN3,q2)*N3*K13) *winding1_scale
B2 S1 S2 V=v(ue)* (v(NN1,p2)*N1*K12 +v(NN2,s2)*N2     +v(NN3,q2)*N3*K23) *winding2_scale
B3 Q1 Q2 V=v(ue)* (v(NN1,p2)*N1*K13 +v(NN2,s2)*N2*K23 +v(NN3,q2)*N3)     *winding3_scale

Bcore Ue 0 v=
+ table[
+ -9120.11, 4.85897,
+ -8317.64, 5.22499,
+ -7585.78, 5.61846,
+ -6918.31, 6.04117,
+ -6309.57, 6.49499,
+ -5754.4, 6.98178,
+ -5248.07, 7.50339,
+ -4786.3, 8.06161,
+ -4365.16, 8.65813,
+ -3981.07, 9.29447,
+ -3630.78, 9.97192,
+ -3311.31, 10.6915,
+ -3019.95, 11.4537,
+ -2754.23, 12.2587,
+ -2511.89, 13.106,
+ -2290.87, 13.9943,
+ -2089.3, 14.9219,
+ -1905.46, 15.8858,
+ -1737.8, 16.8826,
+ -1584.89, 17.9076,
+ -1445.44, 18.9556,
+ -1318.26, 20.0206,
+ -1202.26, 21.096,
+ -1096.48, 22.1739,
+ -1000, 23.2481,
+ -912.011, 24.3109,
+ -831.764, 25.3551,
+ -758.578, 26.3742,
+ -691.831, 27.3622,
+ -630.957, 28.3142,
+ -575.44, 29.2258,
+ -524.807, 29.9241,
+ -478.63, 30.2005,
+ -436.516, 30.3956,
+ -398.107, 30.5356,
+ -363.078, 30.6341,
+ -331.131, 30.7009,
+ -301.995, 30.7432,
+ -275.423, 30.7659,
+ -1, 30.7692,
+ 1, 30.7692,
+ 275.423, 30.7659,
+ 301.995, 30.7432,
+ 331.131, 30.7009,
+ 363.078, 30.6341,
+ 398.107, 30.5356,
+ 436.516, 30.3956,
+ 478.63, 30.2005,
+ 524.807, 29.9241,
+ 575.44, 29.2258,
+ 630.957, 28.3142,
+ 691.831, 27.3622,
+ 758.578, 26.3742,
+ 831.764, 25.3551,
+ 912.011, 24.3109,
+ 1000, 23.2481,
+ 1096.48, 22.1739,
+ 1202.26, 21.096,
+ 1318.26, 20.0206,
+ 1445.44, 18.9556,
+ 1584.89, 17.9076,
+ 1737.8, 16.8826,
+ 1905.46, 15.8858,
+ 2089.3, 14.9219,
+ 2290.87, 13.9943,
+ 2511.89, 13.106,
+ 2754.23, 12.2587,
+ 3019.95, 11.4537,
+ 3311.31, 10.6915,
+ 3630.78, 9.97192,
+ 3981.07, 9.29447,
+ 4365.16, 8.65813,
+ 4786.3, 8.06161,
+ 5248.07, 7.50339,
+ 5754.4, 6.98178,
+ 6309.57, 6.49499,
+ 6918.31, 6.04117,
+ 7585.78, 5.61846,
+ 8317.64, 5.22499,
+ 9120.11, 4.85897]
+ ((i(b1)*N1*sign1+i(b2)*N2*sign2+i(b3)*N3*sign3)*Ue_scale)
.ends

* Air gap 0

.subckt tx3_3F4_899 P1 P2 S1 S2 Q1 Q2 params: 
+ N1 10
+ N2 10
+ N3 10
+ Ae 31e-6
+ Le 47e-3
+ Ue 899
+ K12 0.99
+ K23 0.99
+ K13 0.99

L1 NN1 P2 1
L2 NN2 S2 1
L3 NN3 Q2 1
F1 P2 NN1 B1 1
F2 S2 NN2 B2 1
F3 Q2 NN3 B3 1

* perm of free space
.param u0 1.25663e-6

* polarity of coils
* Note for the purposes of calculating saturation
* characteristics, this model assumes all windings 
* are closely coupled to the core
.param sign1 { IFF((k12>=0 && k23<0  && k13>=0  || k12<0 && k23>=0 && k13<0 ), -1, 1) }
.param sign2 { IFF((k12>=0 && k23>=0 && K13<0   || k12<0 && k23>0  && K13>=0), -1, 1) }
.param sign3 { IFF((K12>=0 && K23<0  && k13<0   || K12<0 && K23>=0 && k13>=0), -1, 1) }

* material dependent
.param ui 899

.param winding1_scale {Ae/Le*N1*u0*ue/ui}
.param winding2_scale {Ae/Le*N2*u0*ue/ui}
.param winding3_scale {Ae/Le*N3*u0*ue/ui}
.param Ue_scale {ue/ui/Le}



B1 P1 P2 V=v(ue)* (v(NN1,p2)*N1     +v(NN2,s2)*N2*K12 +v(NN3,q2)*N3*K13) *winding1_scale
B2 S1 S2 V=v(ue)* (v(NN1,p2)*N1*K12 +v(NN2,s2)*N2     +v(NN3,q2)*N3*K23) *winding2_scale
B3 Q1 Q2 V=v(ue)* (v(NN1,p2)*N1*K13 +v(NN2,s2)*N2*K23 +v(NN3,q2)*N3)     *winding3_scale

Bcore Ue 0 v=
+ table[
+ -9120.11, 1.09016,
+ -8317.64, 1.24559,
+ -7585.78, 1.42318,
+ -6918.31, 1.6261,
+ -6309.57, 1.85795,
+ -5754.4, 2.12285,
+ -5248.07, 2.42553,
+ -4786.3, 2.77136,
+ -4365.16, 3.1665,
+ -3981.07, 3.61797,
+ -3630.78, 4.13382,
+ -3311.31, 4.72322,
+ -3019.95, 5.39665,
+ -2754.23, 6.1661,
+ -2511.89, 7.04526,
+ -2290.87, 8.04977,
+ -2089.3, 9.1975,
+ -1905.46, 10.5089,
+ -1737.8, 12.0072,
+ -1584.89, 13.7192,
+ -1445.44, 15.6753,
+ -1318.26, 17.9102,
+ -1202.26, 20.4639,
+ -1096.48, 23.3816,
+ -1000, 26.7153,
+ -912.011, 30.5244,
+ -831.764, 34.8765,
+ -758.578, 39.8492,
+ -691.831, 45.5308,
+ -630.957, 52.0226,
+ -575.44, 59.4399,
+ -524.807, 67.9148,
+ -478.63, 77.5981,
+ -436.516, 88.6619,
+ -398.107, 101.303,
+ -363.078, 115.747,
+ -331.131, 132.25,
+ -301.995, 151.106,
+ -275.423, 172.651,
+ -251.189, 197.267,
+ -229.087, 225.394,
+ -208.93, 257.53,
+ -190.546, 294.248,
+ -173.78, 336.202,
+ -158.489, 384.138,
+ -144.544, 438.908,
+ -131.826, 501.487,
+ -120.226, 572.988,
+ -109.648, 654.685,
+ -100, 732.306,
+ -91.2011, 787.088,
+ -83.1764, 827.903,
+ -75.8578, 857.52,
+ -69.1831, 878.203,
+ -63.0957, 891.802,
+ -57.544, 899.828,
+ -52.4807, 903.506,
+ -47.863, 903.832,
+ -43.6516, 901.616,
+ -1, 900,
+ 1, 900,
+ 43.6516, 901.616,
+ 47.863, 903.832,
+ 52.4807, 903.506,
+ 57.544, 899.828,
+ 63.0957, 891.802,
+ 69.1831, 878.203,
+ 75.8578, 857.52,
+ 83.1764, 827.903,
+ 91.2011, 787.088,
+ 100, 732.306,
+ 109.648, 654.685,
+ 120.226, 572.988,
+ 131.826, 501.487,
+ 144.544, 438.908,
+ 158.489, 384.138,
+ 173.78, 336.202,
+ 190.546, 294.248,
+ 208.93, 257.53,
+ 229.087, 225.394,
+ 251.189, 197.267,
+ 275.423, 172.651,
+ 301.995, 151.106,
+ 331.131, 132.25,
+ 363.078, 115.747,
+ 398.107, 101.303,
+ 436.516, 88.6619,
+ 478.63, 77.5981,
+ 524.807, 67.9148,
+ 575.44, 59.4399,
+ 630.957, 52.0226,
+ 691.831, 45.5308,
+ 758.578, 39.8492,
+ 831.764, 34.8765,
+ 912.011, 30.5244,
+ 1000, 26.7153,
+ 1096.48, 23.3816,
+ 1202.26, 20.4639,
+ 1318.26, 17.9102,
+ 1445.44, 15.6753,
+ 1584.89, 13.7192,
+ 1737.8, 12.0072,
+ 1905.46, 10.5089,
+ 2089.3, 9.1975,
+ 2290.87, 8.04977,
+ 2511.89, 7.04526,
+ 2754.23, 6.1661,
+ 3019.95, 5.39665,
+ 3311.31, 4.72322,
+ 3630.78, 4.13382,
+ 3981.07, 3.61797,
+ 4365.16, 3.1665,
+ 4786.3, 2.77136,
+ 5248.07, 2.42553,
+ 5754.4, 2.12285,
+ 6309.57, 1.85795,
+ 6918.31, 1.6261,
+ 7585.78, 1.42318,
+ 8317.64, 1.24559,
+ 9120.11, 1.09016]
+ ((i(b1)*N1*sign1+i(b2)*N2*sign2+i(b3)*N3*sign3)*Ue_scale)
.ends

* Air gap 0.001

.subckt tx3_3F4_473 P1 P2 S1 S2 Q1 Q2 params: 
+ N1 10
+ N2 10
+ N3 10
+ Ae 31e-6
+ Le 47e-3
+ Ue 473
+ K12 0.99
+ K23 0.99
+ K13 0.99

L1 NN1 P2 1
L2 NN2 S2 1
L3 NN3 Q2 1
F1 P2 NN1 B1 1
F2 S2 NN2 B2 1
F3 Q2 NN3 B3 1

* perm of free space
.param u0 1.25663e-6

* polarity of coils
* Note for the purposes of calculating saturation
* characteristics, this model assumes all windings 
* are closely coupled to the core
.param sign1 { IFF((k12>=0 && k23<0  && k13>=0  || k12<0 && k23>=0 && k13<0 ), -1, 1) }
.param sign2 { IFF((k12>=0 && k23>=0 && K13<0   || k12<0 && k23>0  && K13>=0), -1, 1) }
.param sign3 { IFF((K12>=0 && K23<0  && k13<0   || K12<0 && K23>=0 && k13>=0), -1, 1) }

* material dependent
.param ui 473

.param winding1_scale {Ae/Le*N1*u0*ue/ui}
.param winding2_scale {Ae/Le*N2*u0*ue/ui}
.param winding3_scale {Ae/Le*N3*u0*ue/ui}
.param Ue_scale {ue/ui/Le}



B1 P1 P2 V=v(ue)* (v(NN1,p2)*N1     +v(NN2,s2)*N2*K12 +v(NN3,q2)*N3*K13) *winding1_scale
B2 S1 S2 V=v(ue)* (v(NN1,p2)*N1*K12 +v(NN2,s2)*N2     +v(NN3,q2)*N3*K23) *winding2_scale
B3 Q1 Q2 V=v(ue)* (v(NN1,p2)*N1*K13 +v(NN2,s2)*N2*K23 +v(NN3,q2)*N3)     *winding3_scale

Bcore Ue 0 v=
+ table[
+ -9120.11, 1.13035,
+ -8317.64, 1.29581,
+ -7585.78, 1.48591,
+ -6918.31, 1.70446,
+ -6309.57, 1.95583,
+ -5754.4, 2.24511,
+ -5248.07, 2.57822,
+ -4786.3, 2.96207,
+ -4365.16, 3.40468,
+ -3981.07, 3.91544,
+ -3630.78, 4.50531,
+ -3311.31, 5.18714,
+ -3019.95, 5.97597,
+ -2754.23, 6.88948,
+ -2511.89, 7.94847,
+ -2290.87, 9.17742,
+ -2089.3, 10.6052,
+ -1905.46, 12.2659,
+ -1737.8, 14.1999,
+ -1584.89, 16.4547,
+ -1445.44, 19.0869,
+ -1318.26, 22.1632,
+ -1202.26, 25.7626,
+ -1096.48, 29.9782,
+ -1000, 34.9197,
+ -912.011, 40.7155,
+ -831.764, 47.5151,
+ -758.578, 55.4907,
+ -691.831, 64.8384,
+ -630.957, 75.7767,
+ -575.44, 88.5433,
+ -524.807, 103.387,
+ -478.63, 120.555,
+ -436.516, 140.271,
+ -398.107, 162.709,
+ -363.078, 187.956,
+ -331.131, 215.982,
+ -301.995, 246.599,
+ -275.423, 279.454,
+ -251.189, 314.026,
+ -229.087, 349.662,
+ -208.93, 385.637,
+ -190.546, 418.076,
+ -173.78, 438.453,
+ -158.489, 452.011,
+ -144.544, 461.243,
+ -131.826, 467.391,
+ -120.226, 471.314,
+ -109.648, 473.593,
+ -100, 474.639,
+ -91.2011, 474.752,
+ -83.1764, 474.158,
+ -1, 473.684,
+ 1, 473.684,
+ 83.1764, 474.158,
+ 91.2011, 474.752,
+ 100, 474.639,
+ 109.648, 473.593,
+ 120.226, 471.314,
+ 131.826, 467.391,
+ 144.544, 461.243,
+ 158.489, 452.011,
+ 173.78, 438.453,
+ 190.546, 418.076,
+ 208.93, 385.637,
+ 229.087, 349.662,
+ 251.189, 314.026,
+ 275.423, 279.454,
+ 301.995, 246.599,
+ 331.131, 215.982,
+ 363.078, 187.956,
+ 398.107, 162.709,
+ 436.516, 140.271,
+ 478.63, 120.555,
+ 524.807, 103.387,
+ 575.44, 88.5433,
+ 630.957, 75.7767,
+ 691.831, 64.8384,
+ 758.578, 55.4907,
+ 831.764, 47.5151,
+ 912.011, 40.7155,
+ 1000, 34.9197,
+ 1096.48, 29.9782,
+ 1202.26, 25.7626,
+ 1318.26, 22.1632,
+ 1445.44, 19.0869,
+ 1584.89, 16.4547,
+ 1737.8, 14.1999,
+ 1905.46, 12.2659,
+ 2089.3, 10.6052,
+ 2290.87, 9.17742,
+ 2511.89, 7.94847,
+ 2754.23, 6.88948,
+ 3019.95, 5.97597,
+ 3311.31, 5.18714,
+ 3630.78, 4.50531,
+ 3981.07, 3.91544,
+ 4365.16, 3.40468,
+ 4786.3, 2.96207,
+ 5248.07, 2.57822,
+ 5754.4, 2.24511,
+ 6309.57, 1.95583,
+ 6918.31, 1.70446,
+ 7585.78, 1.48591,
+ 8317.64, 1.29581,
+ 9120.11, 1.13035]
+ ((i(b1)*N1*sign1+i(b2)*N2*sign2+i(b3)*N3*sign3)*Ue_scale)
.ends

* Air gap 0.002

.subckt tx3_3F4_321 P1 P2 S1 S2 Q1 Q2 params: 
+ N1 10
+ N2 10
+ N3 10
+ Ae 31e-6
+ Le 47e-3
+ Ue 321
+ K12 0.99
+ K23 0.99
+ K13 0.99

L1 NN1 P2 1
L2 NN2 S2 1
L3 NN3 Q2 1
F1 P2 NN1 B1 1
F2 S2 NN2 B2 1
F3 Q2 NN3 B3 1

* perm of free space
.param u0 1.25663e-6

* polarity of coils
* Note for the purposes of calculating saturation
* characteristics, this model assumes all windings 
* are closely coupled to the core
.param sign1 { IFF((k12>=0 && k23<0  && k13>=0  || k12<0 && k23>=0 && k13<0 ), -1, 1) }
.param sign2 { IFF((k12>=0 && k23>=0 && K13<0   || k12<0 && k23>0  && K13>=0), -1, 1) }
.param sign3 { IFF((K12>=0 && K23<0  && k13<0   || K12<0 && K23>=0 && k13>=0), -1, 1) }

* material dependent
.param ui 321

.param winding1_scale {Ae/Le*N1*u0*ue/ui}
.param winding2_scale {Ae/Le*N2*u0*ue/ui}
.param winding3_scale {Ae/Le*N3*u0*ue/ui}
.param Ue_scale {ue/ui/Le}



B1 P1 P2 V=v(ue)* (v(NN1,p2)*N1     +v(NN2,s2)*N2*K12 +v(NN3,q2)*N3*K13) *winding1_scale
B2 S1 S2 V=v(ue)* (v(NN1,p2)*N1*K12 +v(NN2,s2)*N2     +v(NN3,q2)*N3*K23) *winding2_scale
B3 Q1 Q2 V=v(ue)* (v(NN1,p2)*N1*K13 +v(NN2,s2)*N2*K23 +v(NN3,q2)*N3)     *winding3_scale

Bcore Ue 0 v=
+ table[
+ -9120.11, 1.17299,
+ -8317.64, 1.34935,
+ -7585.78, 1.55318,
+ -6918.31, 1.78901,
+ -6309.57, 2.06215,
+ -5754.4, 2.37888,
+ -5248.07, 2.74663,
+ -4786.3, 3.17421,
+ -4365.16, 3.67207,
+ -3981.07, 4.25271,
+ -3630.78, 4.93104,
+ -3311.31, 5.72492,
+ -3019.95, 6.65571,
+ -2754.23, 7.74958,
+ -2511.89, 9.03752,
+ -2290.87, 10.5574,
+ -2089.3, 12.355,
+ -1905.46, 14.4861,
+ -1737.8, 17.018,
+ -1584.89, 20.0327,
+ -1445.44, 23.629,
+ -1318.26, 27.9256,
+ -1202.26, 33.064,
+ -1096.48, 39.2101,
+ -1000, 46.5539,
+ -912.011, 55.3065,
+ -831.764, 65.69,
+ -758.578, 77.9192,
+ -691.831, 92.1723,
+ -630.957, 108.55,
+ -575.44, 127.029,
+ -524.807, 147.415,
+ -478.63, 169.328,
+ -436.516, 192.211,
+ -398.107, 215.406,
+ -363.078, 238.204,
+ -331.131, 260.023,
+ -301.995, 280.381,
+ -275.423, 296.686,
+ -251.189, 306.154,
+ -229.087, 312.297,
+ -208.93, 316.333,
+ -190.546, 318.972,
+ -173.78, 320.613,
+ -158.489, 321.531,
+ -144.544, 321.911,
+ -131.826, 321.886,
+ -120.226, 321.569,
+ -1, 321.429,
+ 1, 321.429,
+ 120.226, 321.569,
+ 131.826, 321.886,
+ 144.544, 321.911,
+ 158.489, 321.531,
+ 173.78, 320.613,
+ 190.546, 318.972,
+ 208.93, 316.333,
+ 229.087, 312.297,
+ 251.189, 306.154,
+ 275.423, 296.686,
+ 301.995, 280.381,
+ 331.131, 260.023,
+ 363.078, 238.204,
+ 398.107, 215.406,
+ 436.516, 192.211,
+ 478.63, 169.328,
+ 524.807, 147.415,
+ 575.44, 127.029,
+ 630.957, 108.55,
+ 691.831, 92.1723,
+ 758.578, 77.9192,
+ 831.764, 65.69,
+ 912.011, 55.3065,
+ 1000, 46.5539,
+ 1096.48, 39.2101,
+ 1202.26, 33.064,
+ 1318.26, 27.9256,
+ 1445.44, 23.629,
+ 1584.89, 20.0327,
+ 1737.8, 17.018,
+ 1905.46, 14.4861,
+ 2089.3, 12.355,
+ 2290.87, 10.5574,
+ 2511.89, 9.03752,
+ 2754.23, 7.74958,
+ 3019.95, 6.65571,
+ 3311.31, 5.72492,
+ 3630.78, 4.93104,
+ 3981.07, 4.25271,
+ 4365.16, 3.67207,
+ 4786.3, 3.17421,
+ 5248.07, 2.74663,
+ 5754.4, 2.37888,
+ 6309.57, 2.06215,
+ 6918.31, 1.78901,
+ 7585.78, 1.55318,
+ 8317.64, 1.34935,
+ 9120.11, 1.17299]
+ ((i(b1)*N1*sign1+i(b2)*N2*sign2+i(b3)*N3*sign3)*Ue_scale)
.ends

* Air gap 0.005

.subckt tx3_3F4_163 P1 P2 S1 S2 Q1 Q2 params: 
+ N1 10
+ N2 10
+ N3 10
+ Ae 31e-6
+ Le 47e-3
+ Ue 163
+ K12 0.99
+ K23 0.99
+ K13 0.99

L1 NN1 P2 1
L2 NN2 S2 1
L3 NN3 Q2 1
F1 P2 NN1 B1 1
F2 S2 NN2 B2 1
F3 Q2 NN3 B3 1

* perm of free space
.param u0 1.25663e-6

* polarity of coils
* Note for the purposes of calculating saturation
* characteristics, this model assumes all windings 
* are closely coupled to the core
.param sign1 { IFF((k12>=0 && k23<0  && k13>=0  || k12<0 && k23>=0 && k13<0 ), -1, 1) }
.param sign2 { IFF((k12>=0 && k23>=0 && K13<0   || k12<0 && k23>0  && K13>=0), -1, 1) }
.param sign3 { IFF((K12>=0 && K23<0  && k13<0   || K12<0 && K23>=0 && k13>=0), -1, 1) }

* material dependent
.param ui 163
