*SPICE model for 5082-2810
*The parameters are for a single diode. Parameters also apply 
*to the individual diodes within multiple diode configurations. 

.SUBCKT d5082_2810 1 2
DCD1    1     2      DMOD    
.MODEL  DMOD	D(IS=1.1E-9, CJO=0.8E-12, VJ=.6, BV=25, IBV=1E-5
+		EG=0.69, N=1.08, RS=10, XTI=2, M=0.5)
.ENDS

