*SPICE model for HSCH-5310
*The parameters are for a single diode. Parameters also apply 
*to the individual diodes within multiple diode configurations.
* 
*
.SUBCKT HSCH5310 1 2
DCD1    1     2      DMOD    
.MODEL  DMOD	D(IS=3E-10, CJO=0.09E-12, VJ=.65, BV=5, IBV=10E-5
+		EG=0.69, N=1.08, RS=13, XTI=2, M=0.5)
.ENDS

