*SPICE model for HSCH-5531
*The parameters are for a single diode. Parameters also apply 
*to the individual diodes within multiple diode configurations.
* 
*
.SUBCKT HSCH5531 1 2
DCD1    1     2      DMOD    
.MODEL  DMOD	D(IS=4E-8, CJO=0.09E-12, VJ=.5, BV=5, IBV=10E-5
+		EG=0.69, N=1.08, RS=113, XTI=2, M=0.5)
.ENDS

