*SPICE model for HSMS-286x
*The parameters are for a single diode (HSMS-2860). Parameters also apply 
*to the individual diodes within multiple diode configurations. 
*
.SUBCKT hsms286x 1 2
DCD1    1     2      DMOD    
.MODEL  DMOD	D(IS=5E-8, CJO=0.18E-12, VJ=.65, BV=7, IBV=10E-5
+		EG=0.69, N=1.08, RS=5, XTI=2, M=0.5)
.ENDS

