Version 4.1
SHEET 1 1640 680
WIRE 1088 240 1088 176
WIRE 1344 240 1344 160
WIRE 144 256 144 176
WIRE 144 400 144 320
WIRE 1088 400 1088 320
WIRE 1344 416 1344 320
FLAG 1088 176 MT1
IOPIN 1088 176 BiDir
FLAG 1088 400 MT2
IOPIN 1088 400 BiDir
FLAG 144 176 A
IOPIN 144 176 BiDir
FLAG 144 400 K
IOPIN 144 400 BiDir
FLAG 1344 416 MT2
IOPIN 1344 416 BiDir
FLAG 1344 160 MT1
IOPIN 1344 160 BiDir
SYMBOL diode 128 256 R0
SYMATTR InstName DLED
SYMATTR Value DLED_CORE
SYMBOL g 1088 224 R0
SYMATTR InstName G1
SYMATTR Value {IDRM}
SYMBOL f 1344 320 R180
WINDOW 0 24 80 Left 2
WINDOW 3 24 0 Left 2
SYMATTR InstName F1
SYMATTR Value {IDRM}
TEXT 248 -40 Left 2 !.param VF_LED=1.3 IR_LED=100u IFT=5m IH_ON=500u IH_OFF=300u VINH=12 IDRM=10n IDRM_INH=2m RON=0.1
TEXT 240 0 Left 2 !.model DLED_CORE D(Is={IR_LED} N=1.8 Rs=5 Vfwd={VF_LED})
