Version 4.1
SHEET 1 896 680
WIRE -48 144 -240 144
WIRE 192 144 32 144
WIRE 688 144 384 144
WIRE -240 208 -240 144
WIRE 192 240 112 240
WIRE 688 240 688 144
WIRE 112 304 112 240
WIRE -240 336 -240 288
WIRE 464 336 384 336
WIRE 688 384 688 320
WIRE 464 448 464 336
WIRE 464 576 464 528
FLAG 112 304 0
FLAG -240 336 0
FLAG 464 576 0
FLAG 688 384 0
SYMBOL Optocouplers\\MOC308X 320 304 R0
SYMATTR InstName U1
SYMBOL res 48 128 R90
WINDOW 0 0 56 VBottom 2
WINDOW 3 32 56 VTop 2
SYMATTR InstName R1
SYMATTR Value 220
SYMBOL voltage -240 192 R0
WINDOW 123 0 0 Left 0
WINDOW 39 0 0 Left 0
SYMATTR InstName V1
SYMATTR Value PULSE(0 5 0 1u 1u 40m 100m)
SYMBOL res 448 432 R0
SYMATTR InstName R2
SYMATTR Value 1000
SYMBOL voltage 688 224 R0
WINDOW 123 0 0 Left 0
WINDOW 39 0 0 Left 0
SYMATTR InstName V2
SYMATTR Value SINE(0 120 50)
TEXT -136 352 Left 2 !.tran 0.1
