Version 4.1
SHEET 1 1408 2580
WIRE -48 144 -240 144
WIRE 192 144 32 144
WIRE 688 144 384 144
WIRE -240 208 -240 144
WIRE 192 240 112 240
WIRE 688 240 688 144
WIRE 112 304 112 240
WIRE -240 336 -240 288
WIRE 464 336 384 336
WIRE 688 384 688 320
WIRE 464 448 464 336
WIRE 464 576 464 528
WIRE 800 1232 800 1152
WIRE -416 1280 -416 1168
WIRE 800 1408 800 1312
WIRE -416 1472 -416 1360
WIRE -416 1616 -416 1536
WIRE -288 1984 -416 1984
WIRE -160 1984 -160 1856
WIRE -160 1984 -208 1984
WIRE -112 1984 -160 1984
WIRE 32 1984 -48 1984
WIRE 592 2016 592 1968
WIRE -416 2032 -416 1984
WIRE 272 2032 272 1984
WIRE 592 2160 592 2096
WIRE -416 2176 -416 2112
WIRE 272 2176 272 2112
WIRE -64 2336 -256 2336
WIRE 144 2400 144 2352
WIRE -256 2416 -256 2336
WIRE -64 2416 -64 2336
WIRE 144 2544 144 2480
WIRE -256 2560 -256 2496
WIRE -64 2560 -64 2480
FLAG 112 304 0
FLAG -240 336 0
FLAG 464 576 0
FLAG 688 384 0
FLAG 192 144 A
FLAG 192 240 K
FLAG 384 144 MT1
FLAG 384 336 MT2
FLAG -416 1168 A
IOPIN -416 1168 BiDir
FLAG -416 1616 K
IOPIN -416 1616 BiDir
FLAG 800 1408 MT2
IOPIN 800 1408 BiDir
FLAG 800 1152 MT1
IOPIN 800 1152 BiDir
FLAG -416 2176 0
FLAG -416 1984 ZC_RAW
FLAG 272 2176 0
FLAG 272 1984 VAC
FLAG 32 1984 0
FLAG -160 1856 ZC_OK
FLAG 592 2160 0
FLAG 592 1968 TRIG
FLAG -256 2560 0
FLAG -64 2560 0
FLAG -256 2336 STATE
FLAG 144 2544 0
FLAG 144 2352 STATE
SYMBOL res 48 128 R90
WINDOW 0 0 56 VBottom 2
WINDOW 3 32 56 VTop 2
SYMATTR InstName R1
SYMATTR Value 220
SYMBOL voltage -240 192 R0
WINDOW 123 0 0 Left 0
WINDOW 39 0 0 Left 0
SYMATTR InstName V1
SYMATTR Value PULSE(0 5 0 1u 1u 40m 100m)
SYMBOL res 448 432 R0
SYMATTR InstName R2
SYMATTR Value 1000
SYMBOL voltage 688 224 R0
WINDOW 123 0 0 Left 0
WINDOW 39 0 0 Left 0
SYMATTR InstName V2
SYMATTR Value SINE(0 120 50)
SYMBOL diode -432 1472 R0
SYMATTR InstName DLED1
SYMATTR Value DLED_CORE
SYMBOL f 800 1312 R180
WINDOW 0 24 80 Left 2
WINDOW 3 24 0 Left 2
SYMATTR InstName G1
SYMATTR Value VALUE = {IDRM}
SYMATTR Prefix G
SYMBOL bv -416 2016 R0
SYMATTR InstName B1
SYMATTR Value V=0.5*(1 - tanh((abs(V(VAC)) - VINH)/1))
SYMBOL res -432 1264 R0
SYMATTR InstName RLED_SENSE
SYMATTR Value 0.01
SYMBOL bv 272 2016 R0
SYMATTR InstName B2
SYMATTR Value V=V(MT1,MT2)
SYMBOL res -192 1968 R90
WINDOW 0 0 56 VBottom 2
WINDOW 3 32 56 VTop 2
SYMATTR InstName R_ZC
SYMATTR Value 10k
SYMBOL cap -112 2000 R270
WINDOW 0 32 32 VTop 2
WINDOW 3 0 32 VBottom 2
SYMATTR InstName C_ZC
SYMATTR Value 100n
SYMBOL bv 592 2000 R0
SYMATTR InstName B3
SYMATTR Value V=0.5*(1 + tanh((abs(I(RLED_SENSE)) - IFT)/0.0005)) * V(ZC_OK)
SYMBOL res -272 2400 R0
SYMATTR InstName R_STATE
SYMATTR Value 200Meg
SYMBOL cap -80 2416 R0
SYMATTR InstName C_STATE
SYMATTR Value 1u
SYMBOL bv 144 2384 R0
SYMATTR InstName B4
SYMATTR Value I=1m * tanh(10*V(TRIG))
TEXT -136 352 Left 2 !.tran 0.1
TEXT -296 952 Left 2 !.param VF_LED=1.3 IR_LED=100u IFT=5m IH_ON=500u IH_OFF=300u VINH=12 IDRM=10n IDRM_INH=2m RON=0.1
TEXT -304 992 Left 2 !.model DLED_CORE D(Is={IR_LED} N=1.8 Rs=5 Vfwd={VF_LED})
