*DEFINE RTF=34K
*DEFINE RTR=31K
.TRAN .1N 50N
*INCLUDE INTEL.LIB
.OPTIONS ACCT 
