.TRAN .1N 150N
*INCLUDE IBIS1.LIB
.OPTION ACCT VSCALE=5
*INCLUDE FRAME.LIB
