.TRAN .1N 120N
*INCLUDE IBIS1.LIB
.OPTION ACCT VSCALE=7.5
