**************************************
*      Model Generated by MODPEX     *
*Copyright(c) Symmetry Design Systems*
*         All Rights Reserved        *
*    UNPUBLISHED LICENSED SOFTWARE   *
*   Contains Proprietary Information *
*      Which is The Property of      *
*     SYMMETRY OR ITS LICENSORS      *
*Commercial Use or Resale Restricted *
*   by Symmetry License Agreement    *
**************************************
* Model generated on Jun  4, 98
* MODEL FORMAT: SPICE3
.MODEL mur1620ctr d
+IS=3.36005e-10 RS=0.0107295 N=1.22895 EG=0.930043
+XTI=2.97484 BV=1000 IBV=0.0001 CJO=8.67169e-10
+VJ=0.4 M=0.438549 FC=0.5 TT=1e-09
+KF=0 AF=1

