**************************************
*      Model Generated by MODPEX     *
*Copyright(c) Symmetry Design Systems*
*         All Rights Reserved        *
*    UNPUBLISHED LICENSED SOFTWARE   *
*   Contains Proprietary Information *
*      Which is The Property of      *
*     SYMMETRY OR ITS LICENSORS      *
*Commercial Use or Resale Restricted *
*   by Symmetry License Agreement    *
**************************************
* Model generated on Jul  7, 98
* MODEL FORMAT: SPICE3
.MODEL mur3060pt d
+IS=2.96007e-05 RS=0.0226824 N=2.92793 EG=1.3
+XTI=5 BV=600 IBV=0.0001 CJO=6.19837e-10
+VJ=0.4 M=0.41588 FC=0.5 TT=5e-08
+KF=0 AF=1

