**************************************
*      Model Generated by MODPEX     *
*Copyright(c) Symmetry Design Systems*
*         All Rights Reserved        *
*    UNPUBLISHED LICENSED SOFTWARE   *
*   Contains Proprietary Information *
*      Which is The Property of      *
*     SYMMETRY OR ITS LICENSORS      *
*Commercial Use or Resale Restricted *
*   by Symmetry License Agreement    *
**************************************
* Model generated on Oct 20, 97
* MODEL FORMAT: PSpice
.MODEL Dmur420rl d
+IS=1.10588e-09 RS=0.01 N=1.35379 EG=0.6
+XTI=2.98498 BV=200 IBV=5e-06 CJO=1.66468e-10
+VJ=0.4 M=0.325641 FC=0.5 TT=1e-09
+KF=0 AF=1
