**************************************
*      Model Generated by MODPEX     *
*Copyright(c) Symmetry Design Systems*
*         All Rights Reserved        *
*    UNPUBLISHED LICENSED SOFTWARE   *
*   Contains Proprietary Information *
*      Which is The Property of      *
*     SYMMETRY OR ITS LICENSORS      *
*Commercial Use or Resale Restricted *
*   by Symmetry License Agreement    *
**************************************
* Model generated on Jul 14, 98
* MODEL FORMAT: SPICE3
.MODEL murh860ct d
+IS=0.000463027 RS=0.251267 N=6 EG=1.3
+XTI=5 BV=600 IBV=0.0001 CJO=1.09185e-10
+VJ=0.4 M=0.412278 FC=0.5 TT=1e-09
+KF=0 AF=1

