**************************************
*      Model Generated by MODPEX     *
*Copyright(c) Symmetry Design Systems*
*         All Rights Reserved        *
*    UNPUBLISHED LICENSED SOFTWARE   *
*   Contains Proprietary Information *
*      Which is The Property of      *
*     SYMMETRY OR ITS LICENSORS      *
*Commercial Use or Resale Restricted *
*   by Symmetry License Agreement    *
**************************************
* Model generated on Feb 13, 98
* MODEL FORMAT: PSpice
.MODEL Dmurs120t3 d
+IS=5.10018e-09 RS=0.0249259 N=1.52972 EG=0.866621
+XTI=0.5 BV=1000 IBV=0.0001 CJO=8.83554e-11
+VJ=0.4 M=0.585919 FC=0.5 TT=3.9436e-08
+KF=0 AF=1

