****************************************
* (c)1999 Thomatronik GmbH             *
*   info@thomatronik.de                *
*                                      *
* Author: Arpad Buermen                *
*   Arpad.Burmen@ieee.org              *
****************************************

.MODEL RS1G D (
+   N=3.84579
+  IS=1.61605E-005
+  RS=0.0419308
+  EG=1.52509
+ XTI=3.12933
+ CJO=2.60624E-011
+  VJ=0.301597
+   M=0.370376
+  FC=0.5
+  TT=3.69946E-007
+  BV=400
+ IBV=0.5
+  KF=0
+  AF=1 )
