****************************************
* (c)1999 Thomatronik GmbH             *
*   info@thomatronik.de                *
*                                      *
* Author: Arpad Buermen                *
*   Arpad.Burmen@ieee.org              *
****************************************

.MODEL RS1K D (
+   N=3.84579
+  IS=1.61605E-005
+  RS=0.0419308
+  EG=1.52509
+ XTI=3.12933
+ CJO=1.56708E-011
+  VJ=0.331261
+   M=0.295263
+  FC=0.5
+  TT=1.23315E-006
+  BV=800
+ IBV=0.5
+  KF=0
+  AF=1 )
