*ZETEX  BCW67A Spice model    Last revision  10/1/90
*
.MODEL BCW67A PNP IS =3.2E-14 BF =170 VAF=45 NF =0.977 IKF=1.25 ISE=7E-15
+NE =1.35 BR =50 VAR=50 NR =.986 IKR=0.15 ISC=0.9E-14 NC =1.08 RB =0.16
+RE =0.195 RC =0.185 CJE=104E-12 TF =0.7E-9 CJC=30.5-12 TR =3E-9 VJC=0.395
+MJC=0.415
*
*                          (C)  1991 ZETEX PLC
*
*   The copyright in this model  and  the design embodied belong to
*   Zetex PLC ("Zetex"). It is supplied free of charge by Zetex for
*   the purpose  of research  and design  and may be used or copied
*   intact (including this notice) for that purpose only. All other
*   rights  are  reserved.  The model  is believed  accurate but no
*   condition or warranty as to its  merchantability or fitness for
*   purpose  is  given  and  no liability  in respect of any use is
*   accepted by Zetex PLC, its distributors or agent.
*
*
*   Zetex PLC, Fields New Road, Chadderton, Oldham  OL9 8NP
