*ZETEX  FMMT617 Spice model   Last revision 19/4/94
*
.MODEL FMMT617  NPN IS =5.92E-13 BF =500 IKF=5 VAF=34.6
+               ISE=1.27E-13 NE =1.425 NR =1 BR =280 IKR=2 VAR=12.25 
+               ISC=6.138E-13 NC =1.46 RB =0.1 RE =0.025 RC =0.017 
+               CJC=76E-12 MJC=0.2981 VJC=0.4414 CJE=230E-12 
+               MJE=0.3569 VJE=0.7042 TF =1.12E-9 TR =2.15E-9
*
*
*                          (C)  1994 ZETEX PLC
*
*   The copyright in this model  and  the design embodied belong to
*   Zetex PLC ("Zetex"). It is supplied free of charge by Zetex for
*   the purpose  of research  and design  and may be used or copied
*   intact (including this notice) for that purpose only. All other
*   rights  are  reserved.  The model  is believed  accurate but no
*   condition or warranty as to its  merchantability or fitness for
*   purpose  is  given  and  no liability  in respect of any use is
*   accepted by Zetex PLC, its distributors or agents.
*
*
*   Zetex PLC, Fields New Road, Chadderton, Oldham  OL9 8NP
