*ZETEX  FMMT489  Spice model   Last revision 13/10/93
*
.MODEL FMMT489 NPN IS =1.04E-13  BF =195 IKF =1.9 VAF =160 
+              ISE=1.83E-14 NE =1.35 NR =1.00 BR =140 IKR=0.5 
+              VAR=30 ISC=6.00E-12 NC =1.5 RB =0.3 RE =0.065
+              RC =0.11 CJC=25.37E-12 MJC=0.3281 VJC=0.464 
+              CJE=122E-12 MJE=0.3412 VJE=0.7631 TF =0.86E-9 
+              TR =12.5E-9
*
*
*                          (C)  1993 ZETEX PLC
*
*   The copyright in this model  and  the design embodied belong to
*   Zetex PLC ("Zetex"). It is supplied free of charge by Zetex for
*   the purpose  of research  and design  and may be used or copied
*   intact (including this notice) for that purpose only. All other
*   rights  are  reserved.  The model  is believed  accurate but no
*   condition or warranty as to its  merchantability or fitness for
*   purpose  is  given  and  no liability  in respect of any use is
*   accepted by Zetex PLC, its distributors or agents.
*
*
*   Zetex PLC, Fields New Road, Chadderton, Oldham  OL9 8NP
