*ZETEX  FMMT720  Spice model   Last revision 15/12/93
*
.MODEL FMMT720 PNP IS =6.261E-13  BF =500 IKF =1.4 VAF =28.4 
+              ISE=1.057E-13 NE =1.4923 NR =1.00 BR =42 IKR=0.65 
+              VAR=10.21 ISC=6E-14 NC =1.124 RB =0.078 RE =0.077
+              RC =0.04 CJC=59.54E-12 MJC=0.5058 VJC=0.8427 
+              CJE=201.4E-12 MJE=0.5244 VJE=1.021 TF =0.68E-9 
+              TR =23.7E-9
*
*
*                          (C)  1993 ZETEX PLC
*
*   The copyright in this model  and  the design embodied belong to
*   Zetex PLC ("Zetex"). It is supplied free of charge by Zetex for
*   the purpose  of research  and design  and may be used or copied
*   intact (including this notice) for that purpose only. All other
*   rights  are  reserved.  The model  is believed  accurate but no
*   condition or warranty as to its  merchantability or fitness for
*   purpose  is  given  and  no liability  in respect of any use is
*   accepted by Zetex PLC, its distributors or agents.
*
*
*   Zetex PLC, Fields New Road, Chadderton, Oldham  OL9 8NP
