*ZETEX  FMMT723  Spice model   Last revision 15/12/93
*
.MODEL FMMT723 PNP IS =5.5E-13  BF =440 IKF =1 VAF =50.88 
+              ISE=1.554E-13 NE =1.477 NR =1.03 BR =30 IKR=0.7 
+              VAR=13.79 ISC=1.3E-12 NC =1.198 RB =1.5 RE =0.02
+              RC =0.14 CJC=45.74E-12 MJC=0.4889 VJC=0.711 
+              CJE=204.3E-12 MJE=0.5105 VJE=0.9711 TF =0.63E-9 
+              TR =95E-9
*
*
*                          (C)  1993 ZETEX PLC
*
*   The copyright in this model  and  the design embodied belong to
*   Zetex PLC ("Zetex"). It is supplied free of charge by Zetex for
*   the purpose  of research  and design  and may be used or copied
*   intact (including this notice) for that purpose only. All other
*   rights  are  reserved.  The model  is believed  accurate but no
*   condition or warranty as to its  merchantability or fitness for
*   purpose  is  given  and  no liability  in respect of any use is
*   accepted by Zetex PLC, its distributors or agents.
*
*
*   Zetex PLC, Fields New Road, Chadderton, Oldham  OL9 8NP
