*ZETEX  FMMT618 Spice model   Last revision 8/7/93
*
.MODEL FMMT618  NPN IS =5.611E-13 NF =1.0022 BF =480 IKF=4.6 VAF=51
+               ISE=1.73E-13 NE =1.4 NR =1.0002 BR =200 IKR=3 VAR=25 
+               ISC=7.3152E-13 NC =1.47 RB =0.032 RE =0.027 RC =0.025 
+               CJC=59E-12 MJC=0.2651 VJC=0.3051 CJE=216E-12 
+               TF =0.95E-9 TR =2.25E-9
*
*
*                          (C)  1993 ZETEX PLC
*
*   The copyright in this model  and  the design embodied belong to
*   Zetex PLC ("Zetex"). It is supplied free of charge by Zetex for
*   the purpose  of research  and design  and may be used or copied
*   intact (including this notice) for that purpose only. All other
*   rights  are  reserved.  The model  is believed  accurate but no
*   condition or warranty as to its  merchantability or fitness for
*   purpose  is  given  and  no liability  in respect of any use is
*   accepted by Zetex PLC, its distributors or agents.
*
*
*   Zetex PLC, Fields New Road, Chadderton, Oldham  OL9 8NP
