*ZETEX  FMMT491A Spice model   Last revision 20/5/93
*
.MODEL FMMT491A NPN IS =3.05E-13 NF =1.0034 BF =650 IKF=0.8 VAF=165
+               ISE=8.0191E-14 NE =1.4126 NR =1.001 BR =120 IKR=0.6 VAR=69 
+               ISC=1.6E-12 NC =1.38 RB =0.065 RE =0.109 RC =0.075 
+               CJC=17.2E-12 MJC=0.3429 VJC=0.4298 CJE=96E-12 
+               TF =0.71E-9 TR =2.5E-9
*
*
*                          (C)  1993 ZETEX PLC
*
*   The copyright in this model  and  the design embodied belong to
*   Zetex PLC ("Zetex"). It is supplied free of charge by Zetex for
*   the purpose  of research  and design  and may be used or copied
*   intact (including this notice) for that purpose only. All other
*   rights  are  reserved.  The model  is believed  accurate but no
*   condition or warranty as to its  merchantability or fitness for
*   purpose  is  given  and  no liability  in respect of any use is
*   accepted by Zetex PLC, its distributors or agents.
*
*
*   Zetex PLC, Fields New Road, Chadderton, Oldham  OL9 8NP
