*ZETEX  FMMT493 Spice model  Last revision 19/10/98
*
*This model was prepared using MicroSim PSpice.
*Spice software which does not support RCO & GAMMA will 
*model the quasi-saturation region incorrectly.  The
*resulting model will return optimistic values for
*forward Vcesat, current gain and Tdon.  
*To improve simulation in a simplified model try 
*increasing RE and decreasing BF and IKF
*
.MODEL FMMT493 NPN IS =6E-14 NF =0.99 BF =250 IKF=0.9
+NK=0.7 VAF=270 ISE=1E-14 NE =1.2 NR =0.98 BR =30 IKR=0.5
+VAR=27 ISC=1.2e-13 NC =1.2 RB =0.2 RE =0.08 RC =0.08 RCO=5
+GAMMA=5E-9 CJC=15.9E-12 MJC=0.4 VJC=0.51 CJE=108E-12 
+MJE=0.35 VJE=0.7 TF =0.8E-9 TR =55e-9 
*
*
*                          (C)  1991 ZETEX PLC
*
*   The copyright in this model  and  the design embodied belong to
*   Zetex PLC ("Zetex"). It is supplied free of charge by Zetex for
*   the purpose  of research  and design  and may be used or copied
*   intact (including this notice) for that purpose only. All other
*   rights  are  reserved.  The model  is believed  accurate but no
*   condition or warranty as to its  merchantability or fitness for
*   purpose  is  given  and  no liability  in respect of any use is
*   accepted by Zetex PLC, its distributors or agent.
*
*
*   Zetex PLC, Fields New Road, Chadderton, Oldham  OL9 8NP
