*ZETEX  FMMT591A Spice model   Last revision 21/5/93
*
.MODEL FMMT591A PNP IS =3.0572E-13 NF =1.0103 BF =450 IKF=0.93 VAF=20
+               ISE=1.5E-14 NE =1.52 NR =1.007 BR =160 IKR=0.08 VAR=33 
+               ISC=3.8736E-14 NC =1.0893 RB =0.112 RE =0.144 RC =0.156 
+               CJC=42E-12 MJC=0.4449 VJC=0.3131 CJE=91E-12 
+               TF =0.51E-9 TR =3.6E-9
*
*
*                          (C)  1993 ZETEX PLC
*
*   The copyright in this model  and  the design embodied belong to
*   Zetex PLC ("Zetex"). It is supplied free of charge by Zetex for
*   the purpose  of research  and design  and may be used or copied
*   intact (including this notice) for that purpose only. All other
*   rights  are  reserved.  The model  is believed  accurate but no
*   condition or warranty as to its  merchantability or fitness for
*   purpose  is  given  and  no liability  in respect of any use is
*   accepted by Zetex PLC, its distributors or agents.
*
*
*   Zetex PLC, Fields New Road, Chadderton, Oldham  OL9 8NP
