*ZETEX  FMMT918 Spice model   Last revision 9/90
*
.MODEL FMMT918 NPN IS =1.73E-13 BF =200 VAF=90 IKF=8.8E-3 ISE=241E-12 NE =1.701
+BR =3.124 VAR=9.7 NR =.9705 IKR=.02 ISC=8.31E-13 NC =1.112 RB =17 RE =2.13
+RC =30 CJE=2.27E-12 TF =.2E-9 CJC=1.2E-12 TR =1E-9 VJC=.415 MJC=.145
*
*                          (C)  1991 ZETEX PLC
*
*   The copyright in this model  and  the design embodied belong to
*   Zetex PLC ("Zetex"). It is supplied free of charge by Zetex for
*   the purpose  of research  and design  and may be used or copied
*   intact (including this notice) for that purpose only. All other
*   rights  are  reserved.  The model  is believed  accurate but no
*   condition or warranty as to its  merchantability or fitness for
*   purpose  is  given  and  no liability  in respect of any use is
*   accepted by Zetex PLC, its distributors or agent.
*
*
*   Zetex PLC, Fields New Road, Chadderton, Oldham  OL9 8NP
