*   ZETEX  FMMV2105  Spice Model        Last revision 18/8/92
*
.MODEL FMMV2105 D IS=13.11E-15 N=1.099 RS=.1097 XTI=3 
+      EG=1.11 CJO=33.46E-12 M=.4321 Vj=.6582 FC=.5 BV=45.14 
+      IBV=.1991 TT=379.4E-9
*
*    + ISR=1.261E-12 NR=1.973 IKF=9.623 (LATER SPICE VERSIONS ONLY)
*
*NOTES: FOR RF OPERATION ADD PACKAGE INDUCTANCE OF 2.5E-9H 
*       AND SET RS=0.29 FOR 3V TUNING BIAS.
*
*                          (C)  1992 ZETEX PLC
*
*   The copyright in this model  and  the design embodied belong to
*   Zetex PLC ("Zetex"). It is supplied free of charge by Zetex for
*   the purpose  of research  and design  and may be used or copied
*   intact (including this notice) for that purpose only. All other
*   rights  are  reserved.  The model  is believed  accurate but no
*   condition or warranty as to its  merchantability or fitness for
*   purpose  is  given  and  no liability  in respect of any use is
*   accepted by Zetex PLC, its distributors or agents.
*
*
*   Zetex PLC, Fields New Road, Chadderton, Oldham  OL9 8NP
