*   ZETEX   FZT658   Spice model   Last revision 13/4/92
*
.MODEL FZT658  NPN IS=2.2993E-13 NF=1.00036 BF=170 IKF=0.165 
+VAF=1367 ISE=6.1417E-14 NE=1.3904 NR=1.00173 BR=13 IKR=0.85 
+VAR=59 ISC=9.1896E-15 NC=1.0316 RB=0.08 RE=0.136 RC=0.181  
+CJC=22.5E-12 MJC=0.44 VJC=0.425 CJE=330E-12 TF=2.08E-9 TR=230E-9
*
*
*                          (C)  1992 ZETEX PLC
*
*   The copyright in this model  and  the design embodied belong to
*   Zetex PLC ("Zetex"). It is supplied free of charge by Zetex for
*   the purpose  of research  and design  and may be used or copied
*   intact (including this notice) for that purpose only. All other
*   rights  are  reserved.  The model  is believed  accurate but no
*   condition or warranty as to its  merchantability or fitness for
*   purpose  is  given  and  no liability  in respect of any use is
*   accepted by Zetex PLC, its distributors or agents.
*
*
*   Zetex PLC, Fields New Road, Chadderton, Oldham  OL9 8NP
