*ZETEX  FZT757 Spice model   Last revision  30/11/90
*
.MODEL FZT757 PNP IS =1.305E-13 NF =1.0004 BF =97 IKF=.25 VAF=1060 ISE=7.5E-14
+NE =1.5 NR =1 ISC=2E-13 NC =1.8 VAR=50 BR =3.2 IKR=.5 RB =.1 RE =.19 RC =.2
+CJC=48E-12 MJC=.56 VJC=.775 CJE=445E-12 TF =3.03E-9 TR =1500E-9
*
*                          (C)  1991 ZETEX PLC
*
*   The copyright in this model  and  the design embodied belong to
*   Zetex PLC ("Zetex"). It is supplied free of charge by Zetex for
*   the purpose  of research  and design  and may be used or copied
*   intact (including this notice) for that purpose only. All other
*   rights  are  reserved.  The model  is believed  accurate but no
*   condition or warranty as to its  merchantability or fitness for
*   purpose  is  given  and  no liability  in respect of any use is
*   accepted by Zetex PLC, its distributors or agent.
*
*
*   Zetex PLC, Fields New Road, Chadderton, Oldham  OL9 8NP
