*ZETEX   FZT796A  Spice model   Last revision 14/3/97
*
.MODEL FZT796A PNP IS=7.01378E-13 NF=1.00509 BF=500 IKF=0.43
+VAF=450 ISE=1.13932E-13 NE=1.47073 NR=1.025 BR=6.5 IKR=0.37 VAR=48
+ISC=4.10626E-13 NC=1.00707 RB=0.07 RE=0.2 RC=0.139 CJC=52E-12
+MJC=0.515 VJC=0.65 CJE=280E-12 TF=0.83E-9 TR=4500E-9
*Note, Model may be inaccurate for collector currents above 0.2A.
*
*
*                          (C)  1991 ZETEX PLC
*
*   The copyright in this model  and  the design embodied belong to
*   Zetex PLC ("Zetex"). It is supplied free of charge by Zetex for
*   the purpose  of research  and design  and may be used or copied
*   intact (including this notice) for that purpose only. All other
*   rights  are  reserved.  The model  is believed  accurate but no
*   condition or warranty as to its  merchantability or fitness for
*   purpose  is  given  and  no liability  in respect of any use is
*   accepted by Zetex PLC, its distributors or agent.
*
*
*   Zetex PLC, Fields New Road, Chadderton, Oldham  OL9 8NP
