*   ZETEX   FZT953   Spice model   Last revision 14/3/97
*
.MODEL FZT953  PNP IS=1.6649E-12 NF=1.0139 BF=220 IKF=3.4 VAF=55
+ISE=6.2E-13 NE=1.62 NR=1.0107 BR=40 IKR=0.95 VAR=43 ISC=3E-12
+NC=1.4 RB=0.032 RE=0.0295 RC=0.034 CJC=265E-12 MJC=0.5286 VJC=0.76
+CJE=1.1E-9 TF=0.795E-9 TR=37.5E-9
*
*
*                          (C)  1992 ZETEX PLC
*
*   The copyright in this model  and  the design embodied belong to
*   Zetex PLC ("Zetex"). It is supplied free of charge by Zetex for
*   the purpose  of research  and design  and may be used or copied
*   intact (including this notice) for that purpose only. All other
*   rights  are  reserved.  The model  is believed  accurate but no
*   condition or warranty as to its  merchantability or fitness for
*   purpose  is  given  and  no liability  in respect of any use is
*   accepted by Zetex PLC, its distributors or agents.
*
*
*   Zetex PLC, Fields New Road, Chadderton, Oldham  OL9 8NP
