*ZETEX  FMMT2222A Spice model   Issue date 28/6/99
*Based on metal Q2N2222A Spice model   Last revision 9/12/92
*
.MODEL FMMT2222A NPN IS =3.0611E-14 NF =1.00124 BF =220
+IKF=0.52 VAF=104 ISE=7.5E-15 NE =1.41 NR =1.005 BR =4
+IKR=0.24 VAR=28 ISC=1.06525E-11 NC =1.3728 RB =0.13
+RE =0.22 RC =0.12 CJC=9.12E-12 MJC=0.3508 VJC=0.4089 
+CJE=27.01E-12 TF =0.325E-9 TR =100E-9
*
*
*                          (C)  1991 ZETEX PLC
*
*   The copyright in this model  and  the design embodied belong to
*   Zetex PLC ("Zetex"). It is supplied free of charge by Zetex for
*   the purpose  of research  and design  and may be used or copied
*   intact (including this notice) for that purpose only. All other
*   rights  are  reserved.  The model  is believed  accurate but no
*   condition or warranty as to its  merchantability or fitness for
*   purpose  is  given  and  no liability  in respect of any use is
*   accepted by Zetex PLC, its distributors or agent.
*
*
*   Zetex PLC, Fields New Road, Chadderton, Oldham  OL9 8NP
