*ZETEX  ZC744  Spice Model   Last revision 03/12/98
*
.MODEL ZC744 D IS=1E-15 N=1.02 RS=0.175
+ XTI=3 EG=1.11 CJO=31.75E-12 M=0.426 
+ VJ=0.737 FC=0.5 BV=40.5 IBV=1E-3 
+ ISR=2E-12 NR=2 TT=450E-9
*
*NOTES: FOR RF OPERATION ADD PACKAGE 
*INDUCTANCE 0F 4E-9H AND SET RS=0.54.
*
*
*                          (C)  1991 ZETEX PLC
*
*   The copyright in this model  and  the design embodied belong to
*   Zetex PLC ("Zetex"). It is supplied free of charge by Zetex for
*   the purpose  of research  and design  and may be used or copied
*   intact (including this notice) for that purpose only. All other
*   rights  are  reserved.  The model  is believed  accurate but no
*   condition or warranty as to its  merchantability or fitness for
*   purpose  is  given  and  no liability  in respect of any use is
*   accepted by Zetex PLC, its distributors or agent.
*
*
*   Zetex PLC, Fields New Road, Chadderton, Oldham  OL9 8NP
