*   ZETEX  ZC834A  Spice Model        Last revision 7/3/92
*
.MODEL ZC834A D IS=5.526E-15 N=1.0380 RS=0.1000 XTI=3
+ EG=1.11 CJO=86.90E-12 M=0.9700 VJ=2.225 FC=0.5
+ BV=45.1 IBV=51.74E-3 TT=216.4E-9
* + ISR=1.904E-12 NR=2.166 (LATER SPICE VERSIONS ONLY)
*
*NOTES: FOR RF OPERATION ADD PACKAGE INDUCTANCE 0F 2.5E-9H AND SET
*  RS=0.39 FOR 2V, 0.33 FOR 5V, 0.27 FOR 10V OR 0.22 FOR 20V BIAS.
*
*                          (C)  1992 ZETEX PLC
*
*   The copyright in this model  and  the design embodied belong to
*   Zetex PLC ("Zetex"). It is supplied free of charge by Zetex for
*   the purpose  of research  and design  and may be used or copied
*   intact (including this notice) for that purpose only. All other
*   rights  are  reserved.  The model  is believed  accurate but no
*   condition or warranty as to its  merchantability or fitness for
*   purpose  is  given  and  no liability  in respect of any use is
*   accepted by Zetex PLC, its distributors or agent.
*
*
*   Zetex PLC, Fields New Road, Chadderton, Oldham  OL9 8NP
