*
*   ZETEX  ZHCS1000    Spice Model        Last revision 6/11/96
*
.MODEL ZHCS1000 D IS=1.6e-7 N=.59 RS=105e-3 IKF=2.5e-3 XTI=2 EG=.58 
+               Cjo=184.9p M=.5231 Vj=.3905 Fc=.5 BV=60 IBV=100E-6
+               ISR=4E-6 NR=1.8 
*
*
*                          (C)  1996 ZETEX PLC
*
*   The copyright in this model  and  the design embodied belong to
*   Zetex PLC ("Zetex"). It is supplied free of charge by Zetex for
*   the purpose  of research  and design  and may be used or copied
*   intact (including this notice) for that purpose only. All other
*   rights  are  reserved.  The model  is believed  accurate but no
*   condition or warranty as to its  merchantability or fitness for
*   purpose  is  given  and  no liability  in respect of any use is
*   accepted by Zetex PLC, its distributors or agent.
*
*
*   Zetex PLC, Fields New Road, Chadderton, Oldham  OL9 8NP
