*ZETEX  ZMS54  Spice Model  Last Revision 25/04/00
*
.MODEL ZMS54 D Is=649e-9 N=1.04 RS=2.09 IKF=20e-3
+XTI=2 EG=0.58 
+CJO=12.4e-12 M=0.381 VJ=0.391
+BV=50 IBV=100e-6 ISR=431e-9 NR=4.99
*
*$
*
*                          (C)  1991 ZETEX PLC
*
*   The copyright in this model  and  the design embodied belong to
*   Zetex PLC ("Zetex"). It is supplied free of charge by Zetex for
*   the purpose  of research  and design  and may be used or copied
*   intact (including this notice) for that purpose only. All other
*   rights  are  reserved.  The model  is believed  accurate but no
*   condition or warranty as to its  merchantability or fitness for
*   purpose  is  given  and  no liability  in respect of any use is
*   accepted by Zetex PLC, its distributors or agent.
*
*
*   Zetex PLC, Fields New Road, Chadderton, Oldham  OL9 8NP
