
*ZETEX  ZTX1056A Spice model   Last revision 24/1/95
*
.MODEL ZTX1056A  NPN IS=1.41E-12  NF=1.0  BF=600  IKF=2.0  VAF=120
+               ISE=4.0E-13  NE=1.4  NR=1.0  BR=80  IKR=2.5  VAR=10
+               ISC=6.0E-10  NC=1.7  RB=0.1  RE=0.065  RC=0.015
+               CJC=53.1E-12  CJE=508.6E-12  MJC=0.461  MJE=0.350
+               VJC=0.461  VJE=0.679  TF=800E-12  TR=110E-9  
*
*
*                          (C)  1995 ZETEX PLC
*
*   The copyright in this model  and  the design embodied belong to
*   Zetex PLC ("Zetex"). It is supplied free of charge by Zetex for
*   the purpose  of research  and design  and may be used or copied
*   intact (including this notice) for that purpose only. All other
*   rights  are  reserved.  The model  is believed  accurate but no
*   condition or warranty as to its  merchantability or fitness for
*   purpose  is  given  and  no liability  in respect of any use is
*   accepted by Zetex PLC, its distributors or agents.
*
*
*   Zetex PLC, Fields New Road, Chadderton, Oldham  OL9 8NP
