
*ZETEX  ZTX1047A Spice model   Last revision 20/01/95
*
.MODEL ZTX1047A  NPN IS=9.73E-13  NF=1.0  BF=550  IKF=8.0  VAF=120
+               ISE=2.6E-13  NE=1.38  NR=1.0  BR=400  IKR=5  VAR=15
+               ISC=8E-13  NC=1.4  RB=0.1  RE=0.017  RC=0.010 
+               CJC=195.4E-12  CJE=540.4E-12  MJC=0.257  MJE=0.359
+               VJC=0.390  VJE=0.753  TF=450E-12  TR=1.2E-9 
*
*
*                          (C)  1994 ZETEX PLC
*
*   The copyright in this model  and  the design embodied belong to
*   Zetex PLC ("Zetex"). It is supplied free of charge by Zetex for
*   the purpose  of research  and design  and may be used or copied
*   intact (including this notice) for that purpose only. All other
*   rights  are  reserved.  The model  is believed  accurate but no
*   condition or warranty as to its  merchantability or fitness for
*   purpose  is  given  and  no liability  in respect of any use is
*   accepted by Zetex PLC, its distributors or agents.
*
*
*   Zetex PLC, Fields New Road, Chadderton, Oldham  OL9 8NP
