*ZETEX  ZTX455 Spice model  Last revision   7/8/90
*
.MODEL ZTX455 NPN IS =5.6E-14 BF =260 VAF=660 NF =.992 IKF=.155 ISE=3.1E-14
+NE =1.2502 BR =24 VAR=6 NR =.999 IKR=.114 ISC=1.406E-13 NC =1.13 RB =1.1
+RE =.161 RC =.0339 CJC=11.6E-12 TF =.75E-9 CJE=53.5E-12 TR =100E-9 VJC=.505
+MJC=.455
*
*                          (C)  1991 ZETEX PLC
*
*   The copyright in this model  and  the design embodied belong to
*   Zetex PLC ("Zetex"). It is supplied free of charge by Zetex for
*   the purpose  of research  and design  and may be used or copied
*   intact (including this notice) for that purpose only. All other
*   rights  are  reserved.  The model  is believed  accurate but no
*   condition or warranty as to its  merchantability or fitness for
*   purpose  is  given  and  no liability  in respect of any use is
*   accepted by Zetex PLC, its distributors or agent.
*
*
*   Zetex PLC, Fields New Road, Chadderton, Oldham  OL9 8NP
