*   ZETEX   ZTX558   Spice model   Last revision 20/3/92
*
.MODEL ZTX558 PNP IS=7.8443E-14 NF=0.99774 BF=200 IKF=0.096 VAF=349
+ISE=3.35E-14 NE=1.689 NR=0.99784 BR=3.4 IKR=0.15 VAR=82 
+ISC=9.42E-12 NC=1.05 RB=0.133 RE=0.5725 RC=0.748 CJC=17.6E-12  
+MJC=0.5932 VJC=0.9135 CJE=110E-12 TF=1.13E-9 TR=75E-6
*
*
*                          (C)  1992 ZETEX PLC
*
*   The copyright in this model  and  the design embodied belong to
*   Zetex PLC ("Zetex"). It is supplied free of charge by Zetex for
*   the purpose  of research  and design  and may be used or copied
*   intact (including this notice) for that purpose only. All other
*   rights  are  reserved.  The model  is believed  accurate but no
*   condition or warranty as to its  merchantability or fitness for
*   purpose  is  given  and  no liability  in respect of any use is
*   accepted by Zetex PLC, its distributors or agents.
*
*
*   Zetex PLC, Fields New Road, Chadderton, Oldham  OL9 8NP
