*ZETEX  ZTX549 Spice model   Last revision 11/10/94
*
.MODEL ZTX549 PNP IS =1.3E-13 BF =200 IKF=1.8 VAF=104
+              ISE=6E-14 NE =1.45 BR =50 IKR=0.2 VAR=8 
+              ISC=3.5E-14 NC =1.23 RB =0.7 RE =0.063 RC =0.122 
+              CJC=55E-12 MJC=0.3541 VJC=0.1928 CJE=120.9E-12 
+              MJE=.4685 VJE=1.041 TF =0.51E-9 TR =3.6E-9
*
*
*                          (C)  1994 ZETEX PLC
*
*   The copyright in this model  and  the design embodied belong to
*   Zetex PLC ("Zetex"). It is supplied free of charge by Zetex for
*   the purpose  of research  and design  and may be used or copied
*   intact (including this notice) for that purpose only. All other
*   rights  are  reserved.  The model  is believed  accurate but no
*   condition or warranty as to its  merchantability or fitness for
*   purpose  is  given  and  no liability  in respect of any use is
*   accepted by Zetex PLC, its distributors or agents.
*
*
*   Zetex PLC, Fields New Road, Chadderton, Oldham  OL9 8NP
