*ZETEX  ZTX718  Spice model   Last revision 15/12/93
*
.MODEL ZTX718 PNP IS =6.8E-13  BF =480 IKF =2 VAF =23 
+              ISE=0.8E-13 NE =1.5567 NR =1.00 BR =70 IKR=0.4 
+              VAR=7 ISC=7.5E-14 NC =1.19 RB =0.085 RE =0.04
+              RC =0.045 CJC=70.02E-12 MJC=0.4685 VJC=0.7714 
+              CJE=203.6E-12 MJE=0.5029 VJE=0.9403 TF =0.71E-9 
+              TR =23.7E-9
*
*
*                          (C)  1993 ZETEX PLC
*
*   The copyright in this model  and  the design embodied belong to
*   Zetex PLC ("Zetex"). It is supplied free of charge by Zetex for
*   the purpose  of research  and design  and may be used or copied
*   intact (including this notice) for that purpose only. All other
*   rights  are  reserved.  The model  is believed  accurate but no
*   condition or warranty as to its  merchantability or fitness for
*   purpose  is  given  and  no liability  in respect of any use is
*   accepted by Zetex PLC, its distributors or agents.
*
*
*   Zetex PLC, Fields New Road, Chadderton, Oldham  OL9 8NP
