*   ZETEX   ZTX758   Spice model   Last revision 15/4/92
*
.MODEL ZTX758  PNP IS=2.72E-13 NF=1.00342 BF=175 IKF=0.205 VAF=450
+ISE=8.24E-14 NE=1.48 NR=1.00392 BR=5.5 IKR=0.6 VAR=78 ISC=1E-14
+NC=1.03 RB=0.1 RE=0.278 RC=0.333 CJC=40E-12 MJC=0.545 VJC=0.715 
+CJE=365E-12 TF=1.3E-9 TR=309E-9
*
*
*                          (C)  1992 ZETEX PLC
*
*   The copyright in this model  and  the design embodied belong to
*   Zetex PLC ("Zetex"). It is supplied free of charge by Zetex for
*   the purpose  of research  and design  and may be used or copied
*   intact (including this notice) for that purpose only. All other
*   rights  are  reserved.  The model  is believed  accurate but no
*   condition or warranty as to its  merchantability or fitness for
*   purpose  is  given  and  no liability  in respect of any use is
*   accepted by Zetex PLC, its distributors or agents.
*
*
*   Zetex PLC, Fields New Road, Chadderton, Oldham  OL9 8NP
