.SUBCKT mgp11n60ed 1 2 3
**************************************
*      Model Generated by MODPEX     *
*Copyright(c) Symmetry Design Systems*
*         All Rights Reserved        *
*    UNPUBLISHED LICENSED SOFTWARE   *
*   Contains Proprietary Information *
*      Which is The Property of      *
*     SYMMETRY OR ITS LICENSORS      *
*Commercial Use or Resale Restricted *
*   by Symmetry License Agreement    *
**************************************
*Model generated on Sep 18, 98
* MODEL FORMAT: SPICE3
*Symmetry IGBT Model (Version 1.0)
*External Node Designations
*Node 1 -> a
*Node 2 -> g
*Node 3 -> k
M1 9 6 8 8 MSUB L=100u W=100u
.MODEL MSUB NMOS LEVEL=1
+VTO=7.66896 KP=0.178375 LAMBDA=-2.78095e-08 CGSO=7.93043e-06
RD 7 9 1e-08
RS 4 8 9.00035e-05
Q1 4 7 1 QSUB OFF
.MODEL QSUB PNP
+IS=4.17923e-17 BF=287.139 NF=1.13496 VAF=204072
+IKF=1.95398 ISE=1e-20 NE=2.34671 BR=5.57694
+NR=0.75 VAR=420.603 IKR=1004.73 ISC=2.71219e-11
+NC=1 RB=0.0001 IRB=998.538 RBM=9.99999e-05
+RE=1e-08 RC=0.00100965 XTB=-5.33506e-09 XTI=2.30478
+EG=1.2 CJC=3.88799e-10 VJC=8.05782 MJC=0.9
+CJE=3.88963e-09 VJE=1.49676 MJE=0.9 TF=5.56578e-11
RDS 7 4 1e8
RER 4 3 0.0966696
RG 6 2 11.4206
RL 10 11 1
D2 12 11 DCAP
* Default values used in DCAP:
*   RS=0 EG=1.11 XTI=3.0 TT=0
*   BV=infinite IBV=1mA
.MODEL DCAP D IS=1e-32 N=50
+CJO=1.21062e-09 VJ=1.21898 M=0.9 FC=0.5
D3 0 11 DL
* Default values used in DL:
*   EG=1.11 XTI=3.0 TT=0 CJO=0
*   RS=0 BV=infinite IBV=1mA
.MODEL DL D IS=1e-10 N=0.4
VFI2 12 0 0
FI2 6 7 VFI2 -1
EV 10 0 7 6 1
CAP 10 13 1.21062e-09
RCAP 10 14 1
D4 0 14 DL
VFI1 13 14 0
FI1 6 7 VFI1 -1
.ENDS mgp11n60ed
