.SUBCKT mgw21n60ed 1 2 3
**************************************
*      Model Generated by MODPEX     *
*Copyright(c) Symmetry Design Systems*
*         All Rights Reserved        *
*    UNPUBLISHED LICENSED SOFTWARE   *
*   Contains Proprietary Information *
*      Which is The Property of      *
*     SYMMETRY OR ITS LICENSORS      *
*Commercial Use or Resale Restricted *
*   by Symmetry License Agreement    *
**************************************
*Model generated on Sep 18, 98
* MODEL FORMAT: SPICE3
*Symmetry IGBT Model (Version 1.0)
*External Node Designations
*Node 1 -> a
*Node 2 -> g
*Node 3 -> k
M1 9 6 8 8 MSUB L=100u W=100u
.MODEL MSUB NMOS LEVEL=1
+VTO=6.98469 KP=0.340983 LAMBDA=0 CGSO=1.56915e-05
RD 7 9 1e-06
RS 4 8 1e-06
Q1 4 7 1 QSUB OFF
.MODEL QSUB PNP
+IS=9.97681e-18 BF=92.3155 NF=0.887594 VAF=136190
+IKF=8.89935 ISE=1e-17 NE=4 BR=0.110118
+NR=0.75 VAR=9388.37 IKR=1162.32 ISC=1e-17
+NC=1 RB=9.99996e-05 IRB=1e-05 RBM=1e-05
+RE=1e-08 RC=1.0002e-08 XTB=0 XTI=2.74066e-05
+EG=1.2 CJC=4.86638e-10 VJC=0.4 MJC=0.2
+CJE=9.73277e-09 VJE=0.4 MJE=0.9 TF=2.10253e-10
RDS 7 4 1e8
RER 4 3 0.0250835
RG 6 2 2
RL 10 11 1
D2 12 11 DCAP
* Default values used in DCAP:
*   RS=0 EG=1.11 XTI=3.0 TT=0
*   BV=infinite IBV=1mA
.MODEL DCAP D IS=1e-32 N=50
+CJO=2.32135e-09 VJ=1.73824 M=0.878204 FC=0.5
D3 0 11 DL
* Default values used in DL:
*   EG=1.11 XTI=3.0 TT=0 CJO=0
*   RS=0 BV=infinite IBV=1mA
.MODEL DL D IS=1e-10 N=0.4
VFI2 12 0 0
FI2 6 7 VFI2 -1
EV 10 0 7 6 1
CAP 10 13 5.82943e-09
RCAP 10 14 1
D4 0 14 DL
VFI1 13 14 0
FI1 6 7 VFI1 -1
.ENDS mgw21n60ed
