**************************************
*      Model Generated by MODPEX     *
*Copyright(c) Symmetry Design Systems*
*         All Rights Reserved        *
*    UNPUBLISHED LICENSED SOFTWARE   *
*   Contains Proprietary Information *
*      Which is The Property of      *
*     SYMMETRY OR ITS LICENSORS      *
*Commercial Use or Resale Restricted *
*   by Symmetry License Agreement    *
**************************************
* Model generated on Aug  7, 98
* MODEL FORMAT: SPICE3
.MODEL mbr130prl d
+IS=9.46301e-05 RS=0.0970914 N=1.50096 EG=0.634145
+XTI=0.4999 BV=1000 IBV=0.0001 CJO=1.62196e-10
+VJ=0.519666 M=0.425758 FC=0.5 TT=1e-09
+KF=0 AF=1

