**************************************
*      Model Generated by MODPEX     *
*Copyright(c) Symmetry Design Systems*
*         All Rights Reserved        *
*    UNPUBLISHED LICENSED SOFTWARE   *
*   Contains Proprietary Information *
*      Which is The Property of      *
*     SYMMETRY OR ITS LICENSORS      *
*Commercial Use or Resale Restricted *
*   by Symmetry License Agreement    *
**************************************
* Model generated on Jul 31, 98
* MODEL FORMAT: SPICE3
.MODEL mbr1100rl d
+IS=0.000528008 RS=0.0710913 N=2.8443 EG=0.823492
+XTI=0.5 BV=1000 IBV=0.0001 CJO=2.61997e-10
+VJ=0.576476 M=0.468617 FC=0.5 TT=1e-09
+KF=0 AF=1

