**************************************
*      Model Generated by MODPEX     *
*Copyright(c) Symmetry Design Systems*
*         All Rights Reserved        *
*    UNPUBLISHED LICENSED SOFTWARE   *
*   Contains Proprietary Information *
*      Which is The Property of      *
*     SYMMETRY OR ITS LICENSORS      *
*Commercial Use or Resale Restricted *
*   by Symmetry License Agreement    *
**************************************
* Model generated on May 27, 98
* MODEL FORMAT: SPICE3
.MODEL mbr20200ct d
+IS=2.13004e-07 RS=0.01 N=1.51125 EG=1.03726
+XTI=0.508834 BV=200 IBV=0.0001 CJO=8.07754e-10
+VJ=0.4 M=0.454959 FC=0.5 TT=1e-09
+KF=0 AF=1

