**************************************
*      Model Generated by MODPEX     *
*Copyright(c) Symmetry Design Systems*
*         All Rights Reserved        *
*    UNPUBLISHED LICENSED SOFTWARE   *
*   Contains Proprietary Information *
*      Which is The Property of      *
*     SYMMETRY OR ITS LICENSORS      *
*Commercial Use or Resale Restricted *
*   by Symmetry License Agreement    *
**************************************
* Model generated on Apr 23, 98
* MODEL FORMAT: SPICE3
.MODEL mbrd620 d
+IS=1e-07 RS=0.0770261 N=0.89211 EG=0.6
+XTI=3.18415 BV=1000 IBV=0.0001 CJO=5.13597e-10
+VJ=1.07639 M=0.577 FC=0.5 TT=0
+KF=0 AF=1

