**************************************
*      Model Generated by MODPEX     *
*Copyright(c) Symmetry Design Systems*
*         All Rights Reserved        *
*    UNPUBLISHED LICENSED SOFTWARE   *
*   Contains Proprietary Information *
*      Which is The Property of      *
*     SYMMETRY OR ITS LICENSORS      *
*Commercial Use or Resale Restricted *
*   by Symmetry License Agreement    *
**************************************
* Model generated on Apr 23, 98
* MODEL FORMAT: SPICE3
.MODEL mbrd320 d
+IS=8.33184e-12 RS=0.0463454 N=0.501786 EG=0.63616
+XTI=0.5 BV=1000 IBV=0.0001 CJO=8.04475e-10
+VJ=0.4 M=0.445785 FC=0.5 TT=0
+KF=0 AF=1

