**************************************
*      Model Generated by MODPEX     *
*Copyright(c) Symmetry Design Systems*
*         All Rights Reserved        *
*    UNPUBLISHED LICENSED SOFTWARE   *
*   Contains Proprietary Information *
*      Which is The Property of      *
*     SYMMETRY OR ITS LICENSORS      *
*Commercial Use or Resale Restricted *
*   by Symmetry License Agreement    *
**************************************
* Model generated on Mar  9, 98
* MODEL FORMAT: SPICE3
.MODEL mbrm120lt3 d
+IS=1.81383e-12 RS=0.01 N=0.5 EG=0.6
+XTI=4 BV=20 IBV=0.0001 CJO=3.01257e-10
+VJ=0.534572 M=0.423885 FC=0.5 TT=1e-09
+KF=0 AF=1

