**************************************
*      Model Generated by MODPEX     *
*Copyright(c) Symmetry Design Systems*
*         All Rights Reserved        *
*    UNPUBLISHED LICENSED SOFTWARE   *
*   Contains Proprietary Information *
*      Which is The Property of      *
*     SYMMETRY OR ITS LICENSORS      *
*Commercial Use or Resale Restricted *
*   by Symmetry License Agreement    *
**************************************
* Model generated on Aug 13, 98
* MODEL FORMAT: SPICE3
.MODEL mbrs230lt3 d
+IS=1.84338e-05 RS=0.0469858 N=1.15777 EG=0.662983
+XTI=0.5 BV=1000 IBV=0.0001 CJO=2.17885e-10
+VJ=0.557614 M=0.466609 FC=0.5 TT=1e-09
+KF=0 AF=1

