**************************************
*      Model Generated by MODPEX     *
*Copyright(c) Symmetry Design Systems*
*         All Rights Reserved        *
*    UNPUBLISHED LICENSED SOFTWARE   *
*   Contains Proprietary Information *
*      Which is The Property of      *
*     SYMMETRY OR ITS LICENSORS      *
*Commercial Use or Resale Restricted *
*   by Symmetry License Agreement    *
**************************************
* Model generated on Aug 12, 98
* MODEL FORMAT: SPICE3
.MODEL mbrs340t3 d
+IS=0.000182183 RS=0.0312608 N=1.40283 EG=0.576586
+XTI=0.000499955 BV=1000 IBV=0.0001 CJO=4.92728e-10
+VJ=0.573693 M=0.464284 FC=0.5 TT=1e-09
+KF=0 AF=1

