
**************************************
*      Model Generated by MODPEX     *
*Copyright(c) Symmetry Design Systems*
*         All Rights Reserved        *
*    UNPUBLISHED LICENSED SOFTWARE   *
*   Contains Proprietary Information *
*      Which is The Property of      *
*     SYMMETRY OR ITS LICENSORS      *
*Commercial Use or Resale Restricted *
*   by Symmetry License Agreement    *
**************************************
* Model generated on Feb 12, 97
* MODEL FORMAT: SPICE3
.MODEL mbrs2040lt3 d
+IS=8.42003e-06 RS=0.0203256 N=1.15599 EG=0.72031
+XTI=1e-12 BV=40 IBV=0.0001 CJO=6.57434e-09
+VJ=0.4 M=0.453752 FC=0.5 TT=9.75056e-10
+KF=0 AF=1



