**************************************
*      Model Generated by MODPEX     *
*Copyright(c) Symmetry Design Systems*
*         All Rights Reserved        *
*    UNPUBLISHED LICENSED SOFTWARE   *
*   Contains Proprietary Information *
*      Which is The Property of      *
*     SYMMETRY OR ITS LICENSORS      *
*Commercial Use or Resale Restricted *
*   by Symmetry License Agreement    *
**************************************
* Model generated on Aug  7, 98
* MODEL FORMAT: SPICE3
.MODEL mbrs120t3 d
+IS=6.76073e-05 RS=0.102178 N=1.43262 EG=0.599998
+XTI=1.74028 BV=1000 IBV=0.0001 CJO=1.64375e-10
+VJ=0.403575 M=0.381308 FC=0.5 TT=1e-09
+KF=0 AF=1

