**************************************
*      Model Generated by MODPEX     *
*Copyright(c) Symmetry Design Systems*
*         All Rights Reserved        *
*    UNPUBLISHED LICENSED SOFTWARE   *
*   Contains Proprietary Information *
*      Which is The Property of      *
*     SYMMETRY OR ITS LICENSORS      *
*Commercial Use or Resale Restricted *
*   by Symmetry License Agreement    *
**************************************
* Model generated on Aug  7, 98
* MODEL FORMAT: SPICE3
.MODEL mbrs320t3 d
+IS=7.66202e-05 RS=0.0359518 N=1.28441 EG=0.6
+XTI=1.67084 BV=1000 IBV=0.0001 CJO=4.74817e-10
+VJ=0.56121 M=0.458126 FC=0.5 TT=2.59685e-08
+KF=0 AF=1

