.SUBCKT zpd5_6 2 1
**************************************
*      Model Generated by MODPEX     *
*Copyright(c) Symmetry Design Systems*
*         All Rights Reserved        *
*    UNPUBLISHED LICENSED SOFTWARE   *
*   Contains Proprietary Information *
*      Which is The Property of      *
*     SYMMETRY OR ITS LICENSORS      *
*Commercial Use or Resale Restricted *
*   by Symmetry License Agreement    *
**************************************
* Model generated on Jan 12, 00
* MODEL FORMAT: PSPICE
*     anode cathode
*node: 2      1
*    Forward Section
D1 2 1 MD1
.MODEL MD1 D IS=4.60908e-14 N=1.10291 XTI=1 RS=1.4423 T_ABS=25
+ CJO=1.25e-10 TT=1e-08
*    Leakage Current
R 1 2 MDR 1.4e+07
.MODEL MDR RES (TC1=0 TC2=0)
*    Breakdown
IZG 4 2 0.084
R4 4 2 500
D3 2 4 MD3
.MODEL MD3 D IS=2.5e-12 N=1.05232 XTI=0 EG=0.1 T_ABS=25
D2 5 4 MD2
.MODEL MD2 D IS=2.5e-12 N=2.9044 XTI=0 EG=0.1 T_ABS=25
EV1 1 5 6 0 1
IBV 0 6 0.001
RBV 6 0 MDRBV 4677.21
.MODEL MDRBV RES (TC1=0.000239459)
*-- SPICE3 DIODE MODEL DEFAULT PARAMETER
*  VALUES ARE ASSUMED
*IS=1E-14 RS=0 N=1 TT=0 CJO=0
*VJ=1 M=0.5 EG=1.11 XTI=3 FC=0.5
*KF=0 AF=1 BV=inf IBV=1e-3 TNOM=27
.ENDS zpd5_6
