.model 1N4153  D(Is=0.1p Rs=6 CJO=1p Tt=3n Bv=100 Ibv=0.1p)
*          85-??-??   Original library
