.model 1N4149  D(Is=0.1p Rs=8 CJO=1p Tt=12n Bv=100 Ibv=0.1p)
*          85-??-??   Original library

