.model 1N4305  D(Is=0.1p Rs=4 CJO=1p Tt=8n Bv=100 Ibv=0.1p)
*          85-??-??   Original library
