.model 1N4938  D(Is=0.1p Rs=2 CJO=2.5p Tt=35n Bv=300 Ibv=0.1p)
*          85-??-??   Original library
