.model 1N914A  D(Is=0.1p Rs=4 CJO=2p Tt=12n Bv=100 Ibv=0.1p)
*          85-??-??   Original library
