.model 1N914B  D(Is=0.1p Rs=2 CJO=2p Tt=12n Bv=100 Ibv=0.1p)
*          85-??-??   Original library
