.SUBCKT mmbz15vdlt1 7 1
**************************************
*      Model Generated by MODPEX     *
*Copyright(c) Symmetry Design Systems*
*         All Rights Reserved        *
*    UNPUBLISHED LICENSED SOFTWARE   *
*   Contains Proprietary Information *
*      Which is The Property of      *
*     SYMMETRY OR ITS LICENSORS      *
*Commercial Use or Resale Restricted *
*   by Symmetry License Agreement    *
**************************************
* Model generated on Mar  5, 98
* MODEL FORMAT: PSPICE
*     anode cathode
*node: 7      1
*    Forward Section
D1 2 1 MDD1
.MODEL MDD1 D IS=1.66605e-15 N=1 XTI=1 RS=0.5 T_ABS=25
+ CJO=8.2e-11 TT=1e-08
*    Leakage Current
R 1 2 MDR 1.30612e+08
.MODEL MDR RES (TC1=0 TC2=0)
*    Breakdown
RZ 2 3 3.21184 
D3 4 3 MDD3
.MODEL MDD3 D T_ABS=25 IS=2.5e-15 N=0.5 
EV1 1 4 6 8 1
IBV 0 6 0.001
RBV 6 0 MDRBV 15000
.MODEL MDRBV RES (TC1=0.00074)
D4 8 0 MDD3
L 7 2 1e-15
IT 0 8 0.001
.ENDS mmbz15vdlt1
