***********
.SUBCKT FUSEG 1 4
*Connections Fuse+ Fuse-
*Optional Fuse temperature can be examined by bringing out node 59
* For 8AG Fuses Use: RCOLDE=-.3, HCTE=2.0, KS=5.3U, and TB=.5
*Fuse Filament Circuit
V1 1 8 
H1 14 0 V1 1
E10 8 37  POLY(2) 14 0 9 0 0 0 0 0 {.1*IB^(RCOLDE)}
G8 0 59  POLY(2) 14 0 8 37 0 0 0 0 1
R2 59 12 1MEG
G2 59 12 59 12 0, {389*IB^(2+RCOLDE)*KS}, {-884M*IB^(2+RCOLDE)*KS},
+ {1.76M*IB^(2+RCOLDE)*KS}, {-1.48U*IB^(2+RCOLDE)*KS}, {484P*IB^(2+RCOLDE)*KS} 
C1 59 0 {.5M*IB^(HCTE)*TB}
G3 11 12 11 12 0, {389*IB^(2+RCOLDE)*KS}, {-884M*IB^(2+RCOLDE)*KS},
+ {1.76M*IB^(2+RCOLDE)*KS}, {-1.48U*IB^(2+RCOLDE)*KS}, {484P*IB^(2+RCOLDE)*KS} 
C2 12 0 {.5M*IB^(HCTE)*TB}
V3 11 0 300
*V3's value is the Ambient Temperature in Degrees K
E2 9 0 59 0 3.333M
R3 8 37 1MEG
R4 14 0 1E12
R5 9 0 1E12
R7 11 12 1MEG
R6 11 59 1MEG
*Fuse Opening Circuit
E1 42 0 59 0 -1200 1
R8 43 44 10K
V4 43 0 1
Q1 39 45 0 NPN OFF
.MODEL NPN NPN(BR=100 CJC=10PF) 
R9 42 45 100MEG
R10 43 39 1MEG
Q2 45 39 44 PNP OFF
.MODEL PNP PNP(BR=100 CJC=10PF) 
X1 37 4 39 LSWITCH2
.ENDS
***********
.SUBCKT FUSEN 1   4
*Connections  Fuse+ Fuse-
*Generic Fuse model for a BEL 8AG Normal Fuse
*Fuse Filament Circuit
V1 1 8 
H1 14 0 V1 1
E10 8 37  POLY(2) 14 0 9 0 0 0 0 0 {.1*IB^(-.3)}
G8 0 59  POLY(2) 14 0 8 37 0 0 0 0 1
R2 59 12 1MEG
G2 59 12 59 12 0, {389*IB^(1.7)*KS}, {-884M*IB^(1.7)*KS},
+ {1.76M*IB^(1.7)*KS}, {-1.48U*IB^(1.7)*KS}, {484P*IB^(1.7)*KS} 
C1 59 0 {.5M*IB^(HCTE)*TB}
G3 11 12 11 12 0, {389*IB^(1.7)*KS}, {-884M*IB^(1.7)*KS},
+ {1.76M*IB^(1.7)*KS}, {-1.48U*IB^(1.7)*KS}, {484P*IB^(1.7)*KS} 
C2 12 0 {.5M*IB^(HCTE)*TB}
V3 11 0 300
*V3's value is the Ambient Temperature in Degrees K
E2 9 0 59 0 3.333M
R3 8 37 1MEG
R4 14 0 1E12
R5 9 0 1E12
R7 11 12 1MEG
R6 11 59 1MEG
*Fuse Opening Circuit
E1 42 0 59 0 {TEMP} 1
R8 43 44 10K
V4 43 0 1
Q1 39 45 0 NPN OFF
.MODEL NPN NPN(BR=100 CJC=10PF) 
R9 42 45 100MEG
R10 43 39 1MEG
Q2 45 39 44 PNP OFF
.MODEL PNP PNP(BR=100 CJC=10PF) 
X1 37 4 39 LSWITCH2
.ENDS
***********
.SUBCKT FUSEF 1     4
*Connections  Fuse+ Fuse-
*Generic Fuse model for a Littlefuse 2AG Fast-Acting Type Fuse, Series 225
*Fuse Filament Circuit
*RCOLDE=-.5 for .1A-1.5A Fuses
*RCOLDE=-.1 for 2A-10A Fuses
V1 1 8 
H1 14 0 V1 1
E10 8 37  POLY(2) 14 0 9 0 0 0 0 0 {.1*IB^(-.1)}
G8 0 59  POLY(2) 14 0 8 37 0 0 0 0 1
R2 59 12 1MEG
G2 59 12 59 12 0, {389*IB^(1.9)*KS}, {-884M*IB^(1.9)*KS},
+ {1.76M*IB^(1.9)*KS}, {-1.48U*IB^(1.9)*KS}, {484P*IB^(1.9)*KS} 
C1 59 0 {.5M*IB^(HCTE)*TB}
G3 11 12 11 12 0, {389*IB^(1.9)*KS}, {-884M*IB^(1.9)*KS},
+ {1.76M*IB^(1.9)*KS}, {-1.48U*IB^(1.9)*KS}, {484P*IB^(1.9)*KS} 
C2 12 0 {.5M*IB^(HCTE)*TB}
V3 11 0 300
*V3's value is the Ambient Temperature in Degrees K
E2 9 0 59 0 3.333M
R3 8 37 1MEG
R4 14 0 1E12
R5 9 0 1E12
R7 11 12 1MEG
R6 11 59 1MEG
*Fuse Opening Circuit
E1 42 0 59 0 -1200 1
R8 43 44 10K
V4 43 0 1
Q1 39 45 0 NPN OFF
.MODEL NPN NPN(BR=100 CJC=10PF) 
R9 42 45 100MEG
R10 43 39 1MEG
Q2 45 39 44 PNP OFF
.MODEL PNP PNP(BR=100 CJC=10PF) 
X1 37 4 39 LSWITCH2
.ENDS
***********
.SUBCKT FUSES1 1     4
*Connections   Fuse+ Fuse-
*Generic Fuse model for a Littlefuse 2AG Slo-Blow Type Fuse
*Series 229 .25A-1.5A
*Fuse Filament Circuit
V1 1 8 
H1 14 0 V1 1
E10 8 37  POLY(2) 14 0 9 0 0 0 0 0 {.1*IB^(-1.5)}
G8 0 59  POLY(2) 14 0 8 37 0 0 0 0 1
R2 59 12 1MEG
G2 59 12 59 12 0, {389*IB^(.5)*KS}, {-884M*IB^(.5)*KS},
+ {1.76M*IB^(.5)*KS}, {-1.48U*IB^(.5)*KS}, {484P*IB^(.5)*KS} 
C1 59 0 {.5M*IB^(HCTE)*TB}
G3 11 12 11 12 0, {389*IB^(.5)*KS}, {-884M*IB^(.5)*KS},
+ {1.76M*IB^(.5)*KS}, {-1.48U*IB^(.5)*KS}, {484P*IB^(.5)*KS} 
C2 12 0 {.5M*IB^(HCTE)*TB}
V3 11 0 300
*V3's value is the Ambient Temperature in Degrees K
E2 9 0 59 0 3.333M
R3 8 37 1MEG
R4 14 0 1E12
R5 9 0 1E12
R7 11 12 1MEG
R6 11 59 1MEG
*Fuse Opening Circuit
E1 42 0 59 0 -1200 1
R8 43 44 10K
V4 43 0 1
Q1 39 45 0 NPN OFF
.MODEL NPN NPN(BR=100 CJC=10PF) 
R9 42 45 100MEG
R10 43 39 1MEG
Q2 45 39 44 PNP OFF
.MODEL PNP PNP(BR=100 CJC=10PF) 
X1 37 4 39 LSWITCH2
.ENDS
***********
.SUBCKT FUSES2 1     4
*Connections   Fuse+ Fuse-
*Generic Fuse model for a Littlefuse 2AG Slo-Blow Type Fuse
*Series 229 2A-7A
*Fuse Filament Circuit
V1 1 8 
H1 14 0 V1 1
E10 8 37  POLY(2) 14 0 9 0 0 0 0 0 {.1*IB^(.1)}
G8 0 59  POLY(2) 14 0 8 37 0 0 0 0 1
R2 59 12 1MEG
G2 59 12 59 12 0, {389*IB^(2.1)*KS}, {-884M*IB^(2.1)*KS},
+ {1.76M*IB^(2.1)*KS}, {-1.48U*IB^(2.1)*KS}, {484P*IB^(2.1)*KS} 
C1 59 0 {.5M*IB^(HCTE)*TB}
G3 11 12 11 12 0, {389*IB^(2.1)*KS}, {-884M*IB^(2.1)*KS},
+ {1.76M*IB^(2.1)*KS}, {-1.48U*IB^(2.1)*KS}, {484P*IB^(2.1)*KS} 
C2 12 0 {.5M*IB^(HCTE)*TB}
V3 11 0 300
*V3's value is the Ambient Temperature in Degrees K
E2 9 0 59 0 3.333M
R3 8 37 1MEG
R4 14 0 1E12
R5 9 0 1E12
R7 11 12 1MEG
R6 11 59 1MEG
*Fuse Opening Circuit
E1 42 0 59 0 -1200 1
R8 43 44 10K
V4 43 0 1
Q1 39 45 0 NPN OFF
.MODEL NPN NPN(BR=100 CJC=10PF) 
R9 42 45 100MEG
R10 43 39 1MEG
Q2 45 39 44 PNP OFF
.MODEL PNP PNP(BR=100 CJC=10PF) 
X1 37 4 39 LSWITCH2
.ENDS
**************
.SUBCKT LSWITCH2 1 2 3
*Connections     + - Control
*Logic Switch, Control Voltage 0=OFF, 1E15Ohm; 1 = ON, .01 Ohm
R1 1 2 1E15     
R3 3 0 1E12
E1 4 0 POLY(1) 3 0 0 0 0 0 0 1
R4 4 0 1E6
G1 1 2 POLY(2) 1 2 4 0 0 0 0 0 1MEG
C1 1 2 10PF
.ENDS
**************
.SUBCKT LSWITCH2 1 2 3
*Connections     + - Control
*Logic Switch, Control Voltage 0=OFF, 1E15Ohm; 1 = ON, .01 Ohm
R1 1 2 1E15     
R3 3 0 1E12
E1 4 0 POLY(1) 3 0 0 0 0 0 0 1
R4 4 0 1E6
G1 1 2 POLY(2) 1 2 4 0 0 0 0 0 {1/RES}
C1 1 2 10PF
.ENDS   
*******
.SUBCKT FILN 1 4 5 {TB=5 KS=5.3U}
*Fuse Filament for a BEL 8AG Normal FUSE
H1 14 0 V1 1
E10 8 4  POLY(2) 14 0 9 0 0 0 0 0 {.1*IB^(-.3)}
G4 0 5  POLY(2) 14 0 8 4 0 0 0 0 1
R2 5 11 1MEG
R6 11 12 1MEG
V3 11 0 300
G2 5 12 5 12 0, {389*IB^(1.7)*KS}, {-884M*IB^(1.7)*KS}, {1.76M*IB^(1.7)*KS}, 
+ {-1.48U*IB^(1.7)*KS}, {484P*IB^(1.7)*KS}, 
G3 11 12 11 12 0, {389*IB^(1.7)*KS}, {-884M*IB^(1.7)*KS}, {1.76M*IB^(1.7)*KS},
+ {-1.48U*IB^(1.7)*KS}, {484P*IB^(1.7)*KS}, 
C1 5 0 {.5M*IB^(2.0)*TB}
C2 12 0 {.5M*IB^(2.0)*TB}
E2 9 0 5 0 3.333M
R3 8 4 1MEG
R4 14 0 1E12
R5 9 0 1E12
V1 1 8 
.ENDS
*******
.SUBCKT FILF 1 4 5 {TB=2 KS=5.3U}
*Fuse Filament for a Littlefuse 2AG Fast-Acting Fuse, Series 225
*RCOLDE=-.5 for .1A-1.5A Fuses
*RCOLDE=-.1 for 2A-10A Fuses
H1 14 0 V1 1
E10 8 4  POLY(2) 14 0 9 0 0 0 0 0 {.1*IB^(-.1)}
G4 0 5  POLY(2) 14 0 8 4 0 0 0 0 1
R2 5 11 1MEG
R6 11 12 1MEG
V3 11 0 300
G2 5 12 5 12 0, {389*IB^(1.9)*KS}, {-884M*IB^(1.9)*KS}, {1.76M*IB^(1.9)*KS}, 
+ {-1.48U*IB^(1.9)*KS}, {484P*IB^(1.9)*KS}, 
G3 11 12 11 12 0, {389*IB^(1.9)*KS}, {-884M*IB^(1.9)*KS}, {1.76M*IB^(1.9)*KS},
+ {-1.48U*IB^(1.9)*KS}, {484P*IB^(1.9)*KS}, 
C1 5 0 {.5M*IB^(2.0)*TB}
C2 12 0 {.5M*IB^(2.0)*TB}
E2 9 0 5 0 6.333M
R3 8 4 1MEG
R4 14 0 1E12
R5 9 0 1E12
V1 1 8 
.ENDS
*******
.SUBCKT FILS1 1 4 5 {TB=5 KS=5.3U}
*Fuse Filament for a Littlefuse 2AG Slo-Blow Fuse 
*Series 229 .25A-1.5A
H1 14 0 V1 1
E10 8 4  POLY(2) 14 0 9 0 0 0 0 0 {.1*IB^(-1.5)}
G4 0 5  POLY(2) 14 0 8 4 0 0 0 0 1
R2 5 11 1MEG
R6 11 12 1MEG
V3 11 0 300
G2 5 12 5 12 0, {389*IB^(.5)*KS}, {-884M*IB^(.5)*KS}, {1.76M*IB^(.5)*KS}, 
+ {-1.48U*IB^(.5)*KS}, {484P*IB^(.5)*KS}, 
G3 11 12 11 12 0, {389*IB^(.5)*KS}, {-884M*IB^(.5)*KS}, {1.76M*IB^(.5)*KS}, 
+ {-1.48U*IB^(.5)*KS}, {484P*IB^(.5)*KS}, 
C1 5 0 {.5M*IB^(2.0)*TB}
C2 12 0 {.5M*IB^(2.0)*TB}
E2 9 0 5 0 3.333M
R3 8 4 1MEG
R4 14 0 1E12
R5 9 0 1E12
V1 1 8 
.ENDS
*******
.SUBCKT FILS2 1 4 5 {TB=.5 KS=5.3U}
*Fuse Filament for a Littlefuse 2AG Slo-Blow Fuse
*Series 229 1.5A-7A
H1 14 0 V1 1
E10 8 4  POLY(2) 14 0 9 0 0 0 0 0 {.1*IB^(.1)}
G4 0 5  POLY(2) 14 0 8 4 0 0 0 0 1
R2 5 11 1MEG
R6 11 12 1MEG
V3 11 0 300
G2 5 12 5 12 0, {389*IB^(2.1)*KS}, {-884M*IB^(2.1)*KS}, {1.76M*IB^(2.1)*KS}, 
+ {-1.48U*IB^(2.1)*KS}, {484P*IB^(2.1)*KS}, 
G3 11 12 11 12 0, {389*IB^(2.1)*KS}, {-884M*IB^(2.1)*KS}, {1.76M*IB^(2.1)*KS},
+ {-1.48U*IB^(2.1)*KS}, {484P*IB^(2.1)*KS}, 
C1 5 0 {.5M*IB^(2.0)*TB}
C2 12 0 {.5M*IB^(2.0)*TB}
E2 9 0 5 0 3.333M
R3 8 4 1MEG
R4 14 0 1E12
R5 9 0 1E12
V1 1 8 
.ENDS
**********
.SUBCKT F8AG100 1     4     
*CONNECTIONS    FUSE+ FUSE-
* BEL 8AG 100mA FUSE Normal Glass Tube Type, Voltage Rating 250V
*FUSE FILAMENT CIRCUIT  
V1 1 8  
H1 14 0 V1 1    
E10 8 37  POLY(2) 14 0 9 0 0 0 0 0 199.53M      
G8 0 59  POLY(2) 14 0 8 37 0 0 0 0 1    
R2 59 12 1MEG   
G2 59 12 59 12 0, 157.56U, -358.05N,    
+ 712.87P, -599.46F, 1.9604E-16 
C1 59 0 5.0000U 
G3 11 12 11 12 0, 157.56U, -358.05N,    
+ 712.87P, -599.46F, 1.9604E-16 
C2 12 0 5.0000U 
V3 11 0 300     
E2 9 0 59 0 3.333M      
R3 8 37 1MEG    
R4 14 0 1E12    
R5 9 0 1E12     
R7 11 12 1MEG   
R6 11 59 1MEG   
*FUSE OPENING CIRCUIT   
E1 42 0 59 0 -395.00  1 
R8 43 44 10K    
V4 43 0 1       
Q1 39 45 0 NPN OFF      
.MODEL NPN NPN(BR=100 CJC=10PF) 
R9 42 45 100MEG 
R10 43 39 1MEG  
Q2 45 39 44 PNP OFF     
.MODEL PNP PNP(BR=100 CJC=10PF) 
X1 37 4 39 LSWITCH2     
.ENDS 
*********
.SUBCKT F8AG250 1 4     
*CONNECTIONS    FUSE+ FUSE-
* BEL 8AG 250mA FUSE Normal Glass Tube Type, Voltage Rating 250V
*FUSE FILAMENT CIRCUIT  
V1 1 8  
H1 14 0 V1 1    
E10 8 37  POLY(2) 14 0 9 0 0 0 0 0 151.57M      
G8 0 59  POLY(2) 14 0 8 37 0 0 0 0 1    
R2 59 12 1MEG   
G2 59 12 59 12 0, 600.67U, -1.3650U,    
+ 2.7177N, -2.2853P, 7.4736E-16 
C1 59 0 39.063U 
G3 11 12 11 12 0, 600.67U, -1.3650U,    
+ 2.7177N, -2.2853P, 7.4736E-16 
C2 12 0 39.063U 
V3 11 0 300     
*V3'S VALUE IS THE AMBIENT TEMPERATURE IN DEGREES K     
E2 9 0 59 0 3.333M      
R3 8 37 1MEG    
R4 14 0 1E12    
R5 9 0 1E12     
R7 11 12 1MEG   
R6 11 59 1MEG   
*FUSE OPENING CIRCUIT   
E1 42 0 59 0 -400.00  1 
R8 43 44 10K    
V4 43 0 1       
Q1 39 45 0 NPN OFF      
.MODEL NPN NPN(BR=100 CJC=10PF) 
R9 42 45 100MEG 
R10 43 39 1MEG  
Q2 45 39 44 PNP OFF     
.MODEL PNP PNP(BR=100 CJC=10PF) 
X1 37 4 39 LSWITCH2     
.ENDS   
**********
.SUBCKT F8AG375 1     4     
*CONNECTIONS    FUSE+ FUSE-
*BEL 8AG 375mA FUSE Normal Glass Tube Type, Voltage Rating 250V
*FUSE FILAMENT CIRCUIT  
V1 1 8  
H1 14 0 V1 1    
E10 8 37  POLY(2) 14 0 9 0 0 0 0 0 134.21M      
G8 0 59  POLY(2) 14 0 8 37 0 0 0 0 1    
R2 59 12 1MEG   
G2 59 12 59 12 0, 4.5306M, -2.5694U,    
+ 5.1155N, -4.3017P, 1.4068F    
C1 59 0 94.922U 
G3 11 12 11 12 0, 4.5306M, -2.5694U,    
+ 5.1155N, -4.3017P, 1.4068F    
C2 12 0 94.922U 
V3 11 0 300     
*V3'S VALUE IS THE AMBIENT TEMPERATURE IN DEGREES K     
E2 9 0 59 0 3.333M      
R3 8 37 1MEG    
R4 14 0 1E12    
R5 9 0 1E12     
R7 11 12 1MEG   
R6 11 59 1MEG   
*FUSE OPENING CIRCUIT   
E1 42 0 59 0 -525.00  1 
R8 43 44 10K    
V4 43 0 1       
Q1 39 45 0 NPN OFF      
.MODEL NPN NPN(BR=100 CJC=10PF) 
R9 42 45 100MEG 
R10 43 39 1MEG  
Q2 45 39 44 PNP OFF     
.MODEL PNP PNP(BR=100 CJC=10PF) 
X1 37 4 39 LSWITCH2     
.ENDS   
********
.SUBCKT F8AG500 1     4     
*CONNECTIONS    FUSE+ FUSE-
*BEL 8AG 500mA FUSE Normal Glass Tube Type, Voltage Rating 250V  
*FUSE FILAMENT CIRCUIT  
V1 1 8  
H1 14 0 V1 1    
E10 8 37  POLY(2) 14 0 9 0 0 0 0 0 123.11M      
G8 0 59  POLY(2) 14 0 8 37 0 0 0 0 1    
R2 59 12 1MEG   
G2 59 12 59 12 0, 1.7480M, -3.9724U,    
+ 7.9089N, -6.6506P, 2.1749F    
C1 59 0 181.25U 
G3 11 12 11 12 0, 1.7480M, -3.9724U,    
+ 7.9089N, -6.6506P, 2.1749F    
C2 12 0 181.25U 
V3 11 0 300     
*V3'S VALUE IS THE AMBIENT TEMPERATURE IN DEGREES K     
E2 9 0 59 0 3.333M      
R3 8 37 1MEG    
R4 14 0 1E12    
R5 9 0 1E12     
R7 11 12 1MEG   
R6 11 59 1MEG   
*FUSE OPENING CIRCUIT   
E1 42 0 59 0 -540.00  1 
R8 43 44 10K    
V4 43 0 1       
Q1 39 45 0 NPN OFF      
.MODEL NPN NPN(BR=100 CJC=10PF) 
R9 42 45 100MEG 
R10 43 39 1MEG  
Q2 45 39 44 PNP OFF     
.MODEL PNP PNP(BR=100 CJC=10PF) 
X1 37 4 39 LSWITCH2     
.ENDS   
**********
.SUBCKT F8AG750 1     4     
*CONNECTIONS    FUSE+ FUSE-
*BEL 8AG 750mA FUSE Normal Glass Tube Type, Voltage Rating 250V   
*FUSE FILAMENT CIRCUIT  
V1 1 8  
H1 14 0 V1 1    
E10 8 37  POLY(2) 14 0 9 0 0 0 0 0 109.01M      
G8 0 59  POLY(2) 14 0 8 37 0 0 0 0 1    
R2 59 12 1MEG   
G2 59 12 59 12 0, 3.1248M, -7.1011U,    
+ 14.138N, -11.889P, 3.8880F    
C1 59 0 464.06U 
G3 11 12 11 12 0, 3.1248M, -7.1011U,    
+ 14.138N, -11.889P, 3.8880F    
C2 12 0 464.06U 
V3 11 0 300     
*V3'S VALUE IS THE AMBIENT TEMPERATURE IN DEGREES K     
E2 9 0 59 0 3.333M      
R3 8 37 1MEG    
R4 14 0 1E12    
R5 9 0 1E12     
R7 11 12 1MEG   
R6 11 59 1MEG   
*FUSE OPENING CIRCUIT   
E1 42 0 59 0 -575.00  1 
R8 43 44 10K    
V4 43 0 1       
Q1 39 45 0 NPN OFF      
.MODEL NPN NPN(BR=100 CJC=10PF) 
R9 42 45 100MEG 
R10 43 39 1MEG  
Q2 45 39 44 PNP OFF     
.MODEL PNP PNP(BR=100 CJC=10PF) 
X1 37 4 39 LSWITCH2     
.ENDS   
*********
.SUBCKT F8AG1 1     4     
*CONNECTIONS  FUSE+ FUSE-
*BEL 8AG 1A FUSE Normal Glass Tube Type, Voltage Rating 250V   
*FUSE FILAMENT CIRCUIT  
V1 1 8  
H1 14 0 V1 1    
E10 8 37  POLY(2) 14 0 9 0 0 0 0 0 100.000M     
G8 0 59  POLY(2) 14 0 8 37 0 0 0 0 1    
R2 59 12 1MEG   
G2 59 12 59 12 0, 4.7847M, -10.873U,    
+ 21.648N, -18.204P, 5.9532F    
C1 59 0 900.00U 
G3 11 12 11 12 0, 4.7847M, -10.873U,    
+ 21.648N, -18.204P, 5.9532F    
C2 12 0 900.00U 
V3 11 0 300     
*V3'S VALUE IS THE AMBIENT TEMPERATURE IN DEGREES K     
E2 9 0 59 0 3.333M      
R3 8 37 1MEG    
R4 14 0 1E12    
R5 9 0 1E12     
R7 11 12 1MEG   
R6 11 59 1MEG   
*FUSE OPENING CIRCUIT   
E1 42 0 59 0 -620.00  1 
R8 43 44 10K    
V4 43 0 1       
Q1 39 45 0 NPN OFF      
.MODEL NPN NPN(BR=100 CJC=10PF) 
R9 42 45 100MEG 
R10 43 39 1MEG  
Q2 45 39 44 PNP OFF     
.MODEL PNP PNP(BR=100 CJC=10PF) 
X1 37 4 39 LSWITCH2     
.ENDS   
************
.SUBCKT F8AG15 1     4     
*CONNECTIONS   FUSE+ FUSE-
* BEL 8AG 1.5A FUSE Normal Glass Tube Type, Voltage Rating 250V  
*FUSE FILAMENT CIRCUIT  
V1 1 8  
H1 14 0 V1 1    
E10 8 37  POLY(2) 14 0 9 0 0 0 0 0 88.547M      
G8 0 59  POLY(2) 14 0 8 37 0 0 0 0 1    
R2 59 12 1MEG   
G2 59 12 59 12 0, 9.1063M, -20.694U,    
+ 41.201N, -34.646P, 11.330F    
C1 59 0 2.1375M 
G3 11 12 11 12 0, 9.1063M, -20.694U,    
+ 41.201N, -34.646P, 11.330F    
C2 12 0 2.1375M 
V3 11 0 300     
*V3'S VALUE IS THE AMBIENT TEMPERATURE IN DEGREES K     
E2 9 0 59 0 3.333M      
R3 8 37 1MEG    
R4 14 0 1E12    
R5 9 0 1E12     
R7 11 12 1MEG   
R6 11 59 1MEG   
*FUSE OPENING CIRCUIT   
E1 42 0 59 0 -635.00  1 
R8 43 44 10K    
V4 43 0 1       
Q1 39 45 0 NPN OFF      
.MODEL NPN NPN(BR=100 CJC=10PF) 
R9 42 45 100MEG 
R10 43 39 1MEG  
Q2 45 39 44 PNP OFF     
.MODEL PNP PNP(BR=100 CJC=10PF) 
X1 37 4 39 LSWITCH2     
.ENDS  
********** 
.SUBCKT F8AG2 1 4     
*CONNECTIONS  FUSE+ FUSE-
*BEL 8AG 2A FUSE Normal Glass Tube Type, Voltage Rating 250V   
*FUSE FILAMENT CIRCUIT  
V1 1 8  
H1 14 0 V1 1    
E10 8 37  POLY(2) 14 0 9 0 0 0 0 0 81.225M      
G8 0 59  POLY(2) 14 0 8 37 0 0 0 0 1    
R2 59 12 1MEG   
G2 59 12 59 12 0, 13.903M, -31.593U,    
+ 62.901N, -52.894P, 17.298F    
C1 59 0 4.0000M 
G3 11 12 11 12 0, 13.903M, -31.593U,    
+ 62.901N, -52.894P, 17.298F    
C2 12 0 4.0000M 
V3 11 0 300     
*V3'S VALUE IS THE AMBIENT TEMPERATURE IN DEGREES K     
E2 9 0 59 0 3.333M      
R3 8 37 1MEG    
R4 14 0 1E12    
R5 9 0 1E12     
R7 11 12 1MEG   
R6 11 59 1MEG   
*FUSE OPENING CIRCUIT   
E1 42 0 59 0 -640.00  1 
R8 43 44 10K    
V4 43 0 1       
Q1 39 45 0 NPN OFF      
.MODEL NPN NPN(BR=100 CJC=10PF) 
R9 42 45 100MEG 
R10 43 39 1MEG  
Q2 45 39 44 PNP OFF     
.MODEL PNP PNP(BR=100 CJC=10PF) 
X1 37 4 39 LSWITCH2     
.ENDS   
**********
.SUBCKT F8AG25 1     4     
*CONNECTIONS   FUSE+ FUSE-
*BEL 8AG 2.5A FUSE Normal Glass Tube Type, Voltage Rating 125V
*FUSE FILAMENT CIRCUIT  
V1 1 8  
H1 14 0 V1 1    
E10 8 37  POLY(2) 14 0 9 0 0 0 0 0 81.225M      
G8 0 59  POLY(2) 14 0 8 37 0 0 0 0 1    
R2 59 12 1MEG   
G2 59 12 59 12 0, 12.639M, -28.721U,    
+ 57.183N, -48.085P, 15.725F    
C1 59 0 4.4000M 
G3 11 12 11 12 0, 12.639M, -28.721U,    
+ 57.183N, -48.085P, 15.725F    
C2 12 0 4.4000M 
V3 11 0 300     
*V3'S VALUE IS THE AMBIENT TEMPERATURE IN DEGREES K     
E2 9 0 59 0 3.333M      
R3 8 37 1MEG    
R4 14 0 1E12    
R5 9 0 1E12     
R7 11 12 1MEG   
R6 11 59 1MEG   
*FUSE OPENING CIRCUIT   
E1 42 0 59 0 -650.00  1 
R8 43 44 10K    
V4 43 0 1       
Q1 39 45 0 NPN OFF      
.MODEL NPN NPN(BR=100 CJC=10PF) 
R9 42 45 100MEG 
R10 43 39 1MEG  
Q2 45 39 44 PNP OFF     
.MODEL PNP PNP(BR=100 CJC=10PF) 
X1 37 4 39 LSWITCH2     
.ENDS   
***********
.SUBCKT F8AG3 1 4     
*CONNECTIONS  FUSE+ FUSE-
*BEL 8AG 3A FUSE Normal Glass Tube Type, Voltage Rating 125V  
*FUSE FILAMENT CIRCUIT  
V1 1 8  
H1 14 0 V1 1    
E10 8 37  POLY(2) 14 0 9 0 0 0 0 0 71.922M      
G8 0 59  POLY(2) 14 0 8 37 0 0 0 0 1    
R2 59 12 1MEG   
G2 59 12 59 12 0, 20.899M, -47.494U,    
+ 94.558N, -79.514P, 26.003F    
C1 59 0 3.7500M 
G3 11 12 11 12 0, 20.899M, -47.494U,    
+ 94.558N, -79.514P, 26.003F    
C2 12 0 3.7500M 
V3 11 0 300     
*V3'S VALUE IS THE AMBIENT TEMPERATURE IN DEGREES K     
E2 9 0 59 0 3.333M      
R3 8 37 1MEG    
R4 14 0 1E12    
R5 9 0 1E12     
R7 11 12 1MEG   
R6 11 59 1MEG   
*FUSE OPENING CIRCUIT   
E1 42 0 59 0 -900.00  1 
R8 43 44 10K    
V4 43 0 1       
Q1 39 45 0 NPN OFF      
.MODEL NPN NPN(BR=100 CJC=10PF) 
R9 42 45 100MEG 
R10 43 39 1MEG  
Q2 45 39 44 PNP OFF     
.MODEL PNP PNP(BR=100 CJC=10PF) 
X1 37 4 39 LSWITCH2     
.ENDS   
***********
.SUBCKT F8AG4 1 4     
*CONNECTIONS  FUSE+ FUSE-
*BEL 8AG 4A FUSE Normal Glass Tube Type, Voltage Rating 125V  
*FUSE FILAMENT CIRCUIT  
V1 1 8  
H1 14 0 V1 1    
E10 8 37  POLY(2) 14 0 9 0 0 0 0 0 65.975M      
G8 0 59  POLY(2) 14 0 8 37 0 0 0 0 1    
R2 59 12 1MEG   
G2 59 12 59 12 0, 33.261M, -75.586U,    
+ 150.49N, -126.55P, 41.384F    
C1 59 0 5.2000M 
G3 11 12 11 12 0, 33.261M, -75.586U,    
+ 150.49N, -126.55P, 41.384F    
C2 12 0 5.2000M 
V3 11 0 300     
*V3'S VALUE IS THE AMBIENT TEMPERATURE IN DEGREES K     
E2 9 0 59 0 3.333M      
R3 8 37 1MEG    
R4 14 0 1E12    
R5 9 0 1E12     
R7 11 12 1MEG   
R6 11 59 1MEG   
*FUSE OPENING CIRCUIT   
E1 42 0 59 0 -910.00  1 
R8 43 44 10K    
V4 43 0 1       
Q1 39 45 0 NPN OFF      
.MODEL NPN NPN(BR=100 CJC=10PF) 
R9 42 45 100MEG 
R10 43 39 1MEG  
Q2 45 39 44 PNP OFF     
.MODEL PNP PNP(BR=100 CJC=10PF) 
X1 37 4 39 LSWITCH2     
.ENDS
***********
.SUBCKT F8AG5 1 4     
*CONNECTIONS  FUSE+ FUSE-
*BEL 8AG 5A FUSE Normal Glass Tube Type, Voltage Rating 125V  
*FUSE FILAMENT CIRCUIT 
V1 1 8  
H1 14 0 V1 1    
E10 8 37  POLY(2) 14 0 9 0 0 0 0 0 61.703M      
G8 0 59  POLY(2) 14 0 8 37 0 0 0 0 1    
R2 59 12 1MEG   
G2 59 12 59 12 0, 47.405M, -107.73U,    
+ 214.48N, -180.36P, 58.982F    
C1 59 0 6.7500M 
G3 11 12 11 12 0, 47.405M, -107.73U,    
+ 214.48N, -180.36P, 58.982F    
C2 12 0 6.7500M 
V3 11 0 300     
*V3'S VALUE IS THE AMBIENT TEMPERATURE IN DEGREES K     
E2 9 0 59 0 3.333M      
R3 8 37 1MEG    
R4 14 0 1E12    
R5 9 0 1E12     
R7 11 12 1MEG   
R6 11 59 1MEG   
*FUSE OPENING CIRCUIT   
E1 42 0 59 0 -920.00  1 
R8 43 44 10K    
V4 43 0 1       
Q1 39 45 0 NPN OFF      
.MODEL NPN NPN(BR=100 CJC=10PF) 
R9 42 45 100MEG 
R10 43 39 1MEG  
Q2 45 39 44 PNP OFF     
.MODEL PNP PNP(BR=100 CJC=10PF) 
X1 37 4 39 LSWITCH2     
.ENDS
**********
.SUBCKT F8AG6 1     4      
*CONNECTIONS  FUSE+ FUSE-
*BEL 8AG 6A FUSE Normal Glass Tube Type, Voltage Rating 125V   
*FUSE FILAMENT CIRCUIT  
V1 1 8  
H1 14 0 V1 1    
E10 8 37  POLY(2) 14 0 9 0 0 0 0 0 58.419M      
G8 0 59  POLY(2) 14 0 8 37 0 0 0 0 1    
R2 59 12 1MEG   
G2 59 12 59 12 0, 62.994M, -143.15U,    
+ 285.01N, -239.67P, 78.378F    
C1 59 0 8.4000M 
G3 11 12 11 12 0, 62.994M, -143.15U,    
+ 285.01N, -239.67P, 78.378F    
C2 12 0 8.4000M 
V3 11 0 300     
*V3'S VALUE IS THE AMBIENT TEMPERATURE IN DEGREES K     
E2 9 0 59 0 3.333M      
R3 8 37 1MEG    
R4 14 0 1E12    
R5 9 0 1E12     
R7 11 12 1MEG   
R6 11 59 1MEG   
*FUSE OPENING CIRCUIT   
E1 42 0 59 0 -930.00  1 
R8 43 44 10K    
V4 43 0 1       
Q1 39 45 0 NPN OFF      
.MODEL NPN NPN(BR=100 CJC=10PF) 
R9 42 45 100MEG 
R10 43 39 1MEG  
Q2 45 39 44 PNP OFF     
.MODEL PNP PNP(BR=100 CJC=10PF) 
X1 37 4 39 LSWITCH2     
.ENDS   
*********
.SUBCKT F8AG7 1     4      
*CONNECTIONS FUSE+ FUSE-
*BEL 8AG 7A FUSE Normal Glass Tube Type, Voltage Rating 125V   
*FUSE FILAMENT CIRCUIT  
V1 1 8  
H1 14 0 V1 1    
E10 8 37  POLY(2) 14 0 9 0 0 0 0 0 55.779M      
G8 0 59  POLY(2) 14 0 8 37 0 0 0 0 1    
R2 59 12 1MEG   
G2 59 12 59 12 0, 79.740M, -181.21U,    
+ 360.78N, -303.38P, 99.214F    
C1 59 0 10.150M 
G3 11 12 11 12 0, 79.740M, -181.21U,    
+ 360.78N, -303.38P, 99.214F    
C2 12 0 10.150M 
V3 11 0 300     
*V3'S VALUE IS THE AMBIENT TEMPERATURE IN DEGREES K     
E2 9 0 59 0 3.333M      
R3 8 37 1MEG    
R4 14 0 1E12    
R5 9 0 1E12     
R7 11 12 1MEG   
R6 11 59 1MEG   
*FUSE OPENING CIRCUIT   
E1 42 0 59 0 -940.00  1 
R8 43 44 10K    
V4 43 0 1       
Q1 39 45 0 NPN OFF      
.MODEL NPN NPN(BR=100 CJC=10PF) 
R9 42 45 100MEG 
R10 43 39 1MEG  
Q2 45 39 44 PNP OFF     
.MODEL PNP PNP(BR=100 CJC=10PF) 
X1 37 4 39 LSWITCH2     
.ENDS   
**********
.SUBCKT F2251 1     4  
*CONNECTIONS  FUSE+ FUSE-       
* Littlefuse 100mA FUSE Fast-Acting Type, Voltage Rating 250V
*FUSE FILAMENT CIRCUIT  
V1 1 8  
H1 14 0 V1 1    
E10 8 37  POLY(2) 14 0 9 0 0 0 0 0 316.23M      
G8 0 59  POLY(2) 14 0 8 37 0 0 0 0 1    
R2 59 12 1MEG   
G2 59 12 59 12 0, 223.88U, -508.77N,    
+ 1.0129N, -851.79F, 2.7856E-16 
C1 59 0 750.00N 
G3 11 12 11 12 0, 223.88U, -508.77N,    
+ 1.0129N, -851.79F, 2.7856E-16 
C2 12 0 750.00N 
V3 11 0 300     
*V3'S VALUE IS THE AMBIENT TEMPERATURE IN DEGREES K     
E2 9 0 59 0 3.333M      
R3 8 37 1MEG    
R4 14 0 1E12    
R5 9 0 1E12     
R7 11 12 1MEG   
R6 11 59 1MEG   
*FUSE OPENING CIRCUIT   
E1 42 0 59 0 -1.2000K 1 
R8 43 44 10K    
V4 43 0 1       
Q1 39 45 0 NPN OFF      
.MODEL NPN NPN(BR=100 CJC=10PF) 
R9 42 45 100MEG 
R10 43 39 1MEG  
Q2 45 39 44 PNP OFF     
.MODEL PNP PNP(BR=100 CJC=10PF) 
X1 37 4 39 LSWITCH2     
.ENDS   
***********
.SUBCKT F225125 1     4     
*CONNECTIONS    FUSE+ FUSE-       
* Littlefuse 2AG 125mA FUSE Fast-Acting Type, Voltage Rating 250V
*FUSE FILAMENT CIRCUIT  
V1 1 8  
H1 14 0 V1 1    
E10 8 37  POLY(2) 14 0 9 0 0 0 0 0 282.84M      
G8 0 59  POLY(2) 14 0 8 37 0 0 0 0 1    
R2 59 12 1MEG   
G2 59 12 59 12 0, 306.01U, -695.40N,    
+ 1.3845N, -1.1643P, 3.8074E-16 
C1 59 0 2.1875U 
G3 11 12 11 12 0, 306.01U, -695.40N,    
+ 1.3845N, -1.1643P, 3.8074E-16 
C2 12 0 2.1875U 
V3 11 0 300     
*V3'S VALUE IS THE AMBIENT TEMPERATURE IN DEGREES K     
E2 9 0 59 0 3.333M      
R3 8 37 1MEG    
R4 14 0 1E12    
R5 9 0 1E12     
R7 11 12 1MEG   
R6 11 59 1MEG   
*FUSE OPENING CIRCUIT   
E1 42 0 59 0 -1.2000K 1 
R8 43 44 10K    
V4 43 0 1       
Q1 39 45 0 NPN OFF      
.MODEL NPN NPN(BR=100 CJC=10PF) 
R9 42 45 100MEG 
R10 43 39 1MEG  
Q2 45 39 44 PNP OFF     
.MODEL PNP PNP(BR=100 CJC=10PF) 
X1 37 4 39 LSWITCH2     
.ENDS   
***********
.SUBCKT F22525 1     4     
*CONNECTIONS   FUSE+ FUSE-       
* Littlefuse 2AG 250mA FUSE Fast-Acting Type, Voltage Rating 250V   
*FUSE FILAMENT CIRCUIT  
V1 1 8  
H1 14 0 V1 1    
E10 8 37  POLY(2) 14 0 9 0 0 0 0 0 200.00M      
G8 0 59  POLY(2) 14 0 8 37 0 0 0 0 1    
R2 59 12 1MEG   
G2 59 12 59 12 0, 486.25U, -1.1050U,    
+ 2.2000N, -1.8500P, 6.0500E-16 
C1 59 0 20.313U 
G3 11 12 11 12 0, 486.25U, -1.1050U,    
+ 2.2000N, -1.8500P, 6.0500E-16 
C2 12 0 20.313U 
V3 11 0 300     
*V3'S VALUE IS THE AMBIENT TEMPERATURE IN DEGREES K     
E2 9 0 59 0 3.333M      
R3 8 37 1MEG    
R4 14 0 1E12    
R5 9 0 1E12     
R7 11 12 1MEG   
R6 11 59 1MEG   
*FUSE OPENING CIRCUIT   
E1 42 0 59 0 -1.2000K 1 
R8 43 44 10K    
V4 43 0 1       
Q1 39 45 0 NPN OFF      
.MODEL NPN NPN(BR=100 CJC=10PF) 
R9 42 45 100MEG 
R10 43 39 1MEG  
Q2 45 39 44 PNP OFF     
.MODEL PNP PNP(BR=100 CJC=10PF) 
X1 37 4 39 LSWITCH2     
.ENDS   
*********
.SUBCKT F225375 1     4     
*CONNECTIONS    FUSE+ FUSE-       
* Littlefuse 2AG 375mA FUSE Fast-Acting Type, Voltage Rating 250V   
*FUSE FILAMENT CIRCUIT  
V1 1 8  
H1 14 0 V1 1    
E10 8 37  POLY(2) 14 0 9 0 0 0 0 0 110.31M      
G8 0 59  POLY(2) 14 0 8 37 0 0 0 0 1    
R2 59 12 1MEG   
G2 59 12 59 12 0, 573.23U, -1.3027U,    
+ 2.5936N, -2.1809P, 7.1323E-16 
C1 59 0 52.734U 
G3 11 12 11 12 0, 573.23U, -1.3027U,    
+ 2.5936N, -2.1809P, 7.1323E-16 
C2 12 0 52.734U 
V3 11 0 300     
*V3'S VALUE IS THE AMBIENT TEMPERATURE IN DEGREES K     
E2 9 0 59 0 3.333M      
R3 8 37 1MEG    
R4 14 0 1E12    
R5 9 0 1E12     
R7 11 12 1MEG   
R6 11 59 1MEG   
*FUSE OPENING CIRCUIT   
E1 42 0 59 0 -1200 1    
R8 43 44 10K    
V4 43 0 1       
Q1 39 45 0 NPN OFF      
.MODEL NPN NPN(BR=100 CJC=10PF) 
R9 42 45 100MEG 
R10 43 39 1MEG  
Q2 45 39 44 PNP OFF     
.MODEL PNP PNP(BR=100 CJC=10PF) 
X1 37 4 39 LSWITCH2     
.ENDS
*********
.SUBCKT F2255 1     4     
*CONNECTIONS  FUSE+ FUSE-       
* Littlefuse 2AG 500mA FUSE Fast-Acting Type, Voltage Rating 250V   
*FUSE FILAMENT CIRCUIT  
V1 1 8  
H1 14 0 V1 1    
E10 8 37  POLY(2) 14 0 9 0 0 0 0 0 107.18M      
G8 0 59  POLY(2) 14 0 8 37 0 0 0 0 1    
R2 59 12 1MEG   
G2 59 12 59 12 0, 938.07U, -2.1318U,    
+ 4.2442N, -3.5690P, 1.1672F    
C1 59 0 106.25U 
G3 11 12 11 12 0, 938.07U, -2.1318U,    
+ 4.2442N, -3.5690P, 1.1672F    
C2 12 0 106.25U 
V3 11 0 300     
*V3'S VALUE IS THE AMBIENT TEMPERATURE IN DEGREES K     
E2 9 0 59 0 3.333M      
R3 8 37 1MEG    
R4 14 0 1E12    
R5 9 0 1E12     
R7 11 12 1MEG   
R6 11 59 1MEG   
*FUSE OPENING CIRCUIT   
E1 42 0 59 0 -1200 1    
R8 43 44 10K    
V4 43 0 1       
Q1 39 45 0 NPN OFF      
.MODEL NPN NPN(BR=100 CJC=10PF) 
R9 42 45 100MEG 
R10 43 39 1MEG  
Q2 45 39 44 PNP OFF     
.MODEL PNP PNP(BR=100 CJC=10PF) 
X1 37 4 39 LSWITCH2     
.ENDS   
*********
.SUBCKT F22575 1     4     
*CONNECTIONS   FUSE+ FUSE-       
* Littlefuse 2AG 750mA FUSE Fast-Acting Type, Voltage Rating 250V   
*FUSE FILAMENT CIRCUIT  
V1 1 8  
H1 14 0 V1 1    
E10 8 37  POLY(2) 14 0 9 0 0 0 0 0 102.92M      
G8 0 59  POLY(2) 14 0 8 37 0 0 0 0 1    
R2 59 12 1MEG   
G2 59 12 59 12 0, 1.9142M, -4.3500U,    
+ 8.6606N, -7.2828P, 2.3817F    
C1 59 0 267.19U 
G3 11 12 11 12 0, 1.9142M, -4.3500U,    
+ 8.6606N, -7.2828P, 2.3817F    
C2 12 0 267.19U 
V3 11 0 300     
*V3'S VALUE IS THE AMBIENT TEMPERATURE IN DEGREES K     
E2 9 0 59 0 3.333M      
R3 8 37 1MEG    
R4 14 0 1E12    
R5 9 0 1E12     
R7 11 12 1MEG   
R6 11 59 1MEG   
*FUSE OPENING CIRCUIT   
E1 42 0 59 0 -1200 1    
R8 43 44 10K    
V4 43 0 1       
Q1 39 45 0 NPN OFF      
.MODEL NPN NPN(BR=100 CJC=10PF) 
R9 42 45 100MEG 
R10 43 39 1MEG  
Q2 45 39 44 PNP OFF     
.MODEL PNP PNP(BR=100 CJC=10PF) 
X1 37 4 39 LSWITCH2     
.ENDS   
*********
.SUBCKT F225001 1     4     
*CONNECTIONS   FUSE+ FUSE-       
* Littlefuse 2AG 1A FUSE Fast-Acting Type, Voltage Rating 250V   
*FUSE FILAMENT CIRCUIT  
V1 1 8  
H1 14 0 V1 1    
E10 8 37  POLY(2) 14 0 9 0 0 0 0 0 100.000M     
G8 0 59  POLY(2) 14 0 8 37 0 0 0 0 1    
R2 59 12 1MEG   
G2 59 12 59 12 0, 3.1120M, -7.0720U,    
+ 14.080N, -11.840P, 3.8720F    
C1 59 0 500.00U 
G3 11 12 11 12 0, 3.1120M, -7.0720U,    
+ 14.080N, -11.840P, 3.8720F    
C2 12 0 500.00U 
V3 11 0 300     
*V3'S VALUE IS THE AMBIENT TEMPERATURE IN DEGREES K     
E2 9 0 59 0 3.333M      
R3 8 37 1MEG    
R4 14 0 1E12    
R5 9 0 1E12     
R7 11 12 1MEG   
R6 11 59 1MEG   
*FUSE OPENING CIRCUIT   
E1 42 0 59 0 -1200 1    
R8 43 44 10K    
V4 43 0 1       
Q1 39 45 0 NPN OFF      
.MODEL NPN NPN(BR=100 CJC=10PF) 
R9 42 45 100MEG 
R10 43 39 1MEG  
Q2 45 39 44 PNP OFF     
.MODEL PNP PNP(BR=100 CJC=10PF) 
X1 37 4 39 LSWITCH2     
.ENDS   
*********
.SUBCKT F225015 1     4     
*CONNECTIONS   FUSE+ FUSE-       
* Littlefuse 2AG 1.5A FUSE Fast-Acting Type, Voltage Rating 250V   
*FUSE FILAMENT CIRCUIT  
V1 1 8  
H1 14 0 V1 1    
E10 8 37  POLY(2) 14 0 9 0 0 0 0 0 96.026M      
G8 0 59  POLY(2) 14 0 8 37 0 0 0 0 1    
R2 59 12 1MEG   
G2 59 12 59 12 0, 6.7238M, -15.280U,    
+ 30.421N, -25.581P, 8.3658F    
C1 59 0 1.1812M 
G3 11 12 11 12 0, 6.7238M, -15.280U,    
+ 30.421N, -25.581P, 8.3658F    
C2 12 0 1.1812M 
V3 11 0 300     
*V3'S VALUE IS THE AMBIENT TEMPERATURE IN DEGREES K     
E2 9 0 59 0 3.333M      
R3 8 37 1MEG    
R4 14 0 1E12    
R5 9 0 1E12     
R7 11 12 1MEG   
R6 11 59 1MEG   
*FUSE OPENING CIRCUIT   
E1 42 0 59 0 -1200 1    
R8 43 44 10K    
V4 43 0 1       
Q1 39 45 0 NPN OFF      
.MODEL NPN NPN(BR=100 CJC=10PF) 
R9 42 45 100MEG 
R10 43 39 1MEG  
Q2 45 39 44 PNP OFF     
.MODEL PNP PNP(BR=100 CJC=10PF) 
X1 37 4 39 LSWITCH2     
.ENDS   
*********
.SUBCKT F225002 1     4     
*CONNECTIONS    FUSE+ FUSE-       
* Littlefuse 2AG 2A FUSE Fast-Acting Type, Voltage Rating 250V   
*FUSE FILAMENT CIRCUIT  
V1 1 8  
H1 14 0 V1 1    
E10 8 37  POLY(2) 14 0 9 0 0 0 0 0 93.303M      
G8 0 59  POLY(2) 14 0 8 37 0 0 0 0 1    
R2 59 12 1MEG   
G2 59 12 59 12 0, 13.792K, -31.342 ,    
+ 62.401M, -52.474U, 17.160N    
C1 59 0 900.00U 
G3 11 12 11 12 0, 13.792K, -31.342 ,    
+ 62.401M, -52.474U, 17.160N    
C2 12 0 900.00U 
V3 11 0 300     
*V3'S VALUE IS THE AMBIENT TEMPERATURE IN DEGREES K     
E2 9 0 59 0 3.333M      
R3 8 37 1MEG    
R4 14 0 1E12    
R5 9 0 1E12     
R7 11 12 1MEG   
R6 11 59 1MEG   
*FUSE OPENING CIRCUIT   
E1 42 0 59 0 -1200 1    
R8 43 44 10K    
V4 43 0 1       
Q1 39 45 0 NPN OFF      
.MODEL NPN NPN(BR=100 CJC=10PF) 
R9 42 45 100MEG 
R10 43 39 1MEG  
Q2 45 39 44 PNP OFF     
.MODEL PNP PNP(BR=100 CJC=10PF) 
X1 37 4 39 LSWITCH2     
.ENDS   
*********
.SUBCKT F225025 1     4     
*CONNECTIONS    FUSE+ FUSE-       
* Littlefuse 2AG 2.5A FUSE Fast-Acting Type, Voltage Rating 250V   
*FUSE FILAMENT CIRCUIT  
V1 1 8  
H1 14 0 V1 1    
E10 8 37  POLY(2) 14 0 9 0 0 0 0 0 91.244M      
G8 0 59  POLY(2) 14 0 8 37 0 0 0 0 1    
R2 59 12 1MEG   
G2 59 12 59 12 0, 19.965M, -45.371U,    
+ 90.332N, -75.961P, 24.841F    
C1 59 0 1.5234M 
G3 11 12 11 12 0, 19.965M, -45.371U,    
+ 90.332N, -75.961P, 24.841F    
C2 12 0 1.5234M 
V3 11 0 300     
*V3'S VALUE IS THE AMBIENT TEMPERATURE IN DEGREES K     
E2 9 0 59 0 3.333M      
R3 8 37 1MEG    
R4 14 0 1E12    
R5 9 0 1E12     
R7 11 12 1MEG   
R6 11 59 1MEG   
*FUSE OPENING CIRCUIT   
E1 42 0 59 0 -1200 1    
R8 43 44 10K    
V4 43 0 1       
Q1 39 45 0 NPN OFF      
.MODEL NPN NPN(BR=100 CJC=10PF) 
R9 42 45 100MEG 
R10 43 39 1MEG  
Q2 45 39 44 PNP OFF     