.model MPS3704  NPN(Is=26.03f Xti=3 Eg=1.11 Vaf=90.7 Bf=736.1K Ne=1.232
+               Ise=26.03f Ikf=.1983 Xtb=1.5 Br=1.024 Nc=2 Isc=0 Ikr=0 Rc=.5
+               Cjc=11.01p Mjc=.3763 Vjc=.75 Fc=.5 Cje=24.07p Mje=.3641 Vje=.75
+               Tr=233.8n Tf=1.03n Itf=0 Vtf=0 Xtf=0 Rb=10)
*               National        pid=2N4400      case=TO92
*               88-09-13 bam    creation
