.model MPS3904  NPN(Is=1.949f Xti=3 Eg=1.11 Vaf=30.7 Bf=782.4 Ne=1.214
+               Ise=1.949f Ikf=76.07m Xtb=1.5 Br=3.143 Nc=2 Isc=0 Ikr=0 Rc=4
+               Cjc=3.898p Mjc=.2858 Vjc=.75 Fc=.5 Cje=6.726p Mje=.3467 Vje=.75
+               Tr=1.197n Tf=637.7p Itf=.15 Vtf=4 Xtf=14 Rb=10)
*               National        pid=02          case=TO92
*               88-09-07 bam    creation
