.model MPS3646  NPN(Is=1.017f Xti=3 Eg=1.11 Vaf=100 Bf=85.99 Ne=2.048
+               Ise=34.11p Ikf=.2617 Xtb=1.5 Br=3.587 Nc=2 Isc=0 Ikr=0 Rc=1.75
+               Cjc=4.256p Mjc=.1053 Vjc=.75 Fc=.5 Cje=8.359p Mje=.3504 Vje=.75
+               Tr=5.32n Tf=289.3p Itf=.35 Vtf=5 Xtf=2 Rb=10)
*               National        pid=21          case=TO92
*               88-09-07 bam    creation
