.model MPS6523  PNP(Is=6.734f Xti=3 Eg=1.11 Vaf=45.7 Bf=446.6 Ne=1.83
+               Ise=6.734f Ikf=.2112 Xtb=1.5 Br=2.624 Nc=2 Isc=0 Ikr=0 Rc=1.67
+               Cjc=6.2p Mjc=.301 Vjc=.75 Fc=.5 Cje=7.5p Mje=.2861 Vje=.75
+               Tr=9.802n Tf=468p Itf=.17 Vtf=5 Xtf=8 Rb=10)
*               Fairchild        pid=62          case=TO92
*               88-09-08 bam    creation
