.model MPS6520  NPN(Is=12.03f Xti=3 Eg=1.11 Vaf=37.37 Bf=393.2 Ne=1.971
+               Ise=3.212p Ikf=.1072 Xtb=1.5 Br=4.379 Nc=2 Isc=0 Ikr=0 Rc=1
+               Cjc=3.123p Mjc=.3199 Vjc=.75 Fc=.5 Cje=8.307p Mje=.384 Vje=.75
+               Tr=705.6p Tf=390p Itf=.17 Vtf=3 Xtf=8 Rb=10)
*               National        pid=04          case=TO92
*               88-09-07 bam    creation
