.model MPS6565  NPN(Is=61.01f Xti=3 Eg=1.11 Vaf=57.37 Bf=118.5 Ne=1.305
+               Ise=125.1f Ikf=97.79m Xtb=1.5 Br=.237 Nc=2 Isc=0 Ikr=0 Rc=2.14
+               Cjc=6.072p Mjc=.3333 Vjc=.75 Fc=.5 Cje=5.928p Mje=.3333 Vje=.75
+               Tr=1.637u Tf=316.3p Itf=.2 Vtf=5 Xtf=8 Rb=10)
*               National        pid=27          case=TO92
*               88-09-08 bam    creation
