.model MPS6512  NPN(Is=6.734f Xti=3 Eg=1.11 Vaf=74.03 Bf=336.8 Ne=1.205
+               Ise=6.734f Ikf=59.9m Xtb=1.5 Br=.8132 Nc=2 Isc=0 Ikr=0 Rc=1
+               Cjc=3.118p Mjc=.3086 Vjc=.75 Fc=.5 Cje=4.493p Mje=.2593 Vje=.75
+               Tr=244.2n Tf=301.2p Itf=.4 Vtf=4 Xtf=2 Rb=10)
*               National        pid=23          case=TO92
*               88-09-08 bam    creation
