.model MPS6533  PNP(Is=650.6E-18 Xti=3 Eg=1.11 Vaf=115.7 Bf=77.22 Ne=1.829
+               Ise=164.4f Ikf=1.079 Xtb=1.5 Br=4.061 Nc=2 Isc=0 Ikr=0 Rc=.715
+               Cjc=14.76p Mjc=.5383 Vjc=.75 Fc=.5 Cje=19.82p Mje=.3357 Vje=.75
+               Tr=118.9n Tf=761.3p Itf=.65 Vtf=5 Xtf=1.7 Rb=10)
*               National        pid=63          case=TO92
*               88-09-09 bam    creation
