.model MPS6522  PNP(Is=3.983f Xti=3 Eg=1.11 Vaf=40.7 Bf=479.5 Ne=1.322
+               Ise=3.983f Ikf=37.99m Xtb=1.5 Br=1.69 Nc=2 Isc=0 Ikr=0 Rc=1.6
+               Cjc=7.327p Mjc=.4877 Vjc=.75 Fc=.5 Cje=9.408p Mje=.3462 Vje=.75
+               Tr=274.3n Tf=344p Itf=.2 Vtf=18 Xtf=4 Rb=10)
*               National        pid=2N5086      case=TO92
*               88-09-14 bam    creation
