.model MPS8099  NPN(Is=4.872f Xti=3 Eg=1.11 Vaf=100 Bf=9.599K Ne=1.315
+               Ise=14.65f Ikf=.1434 Xtb=1.5 Br=6.935 Nc=2 Isc=0 Ikr=0 Rc=.7
+               Cjc=5.805p Mjc=.4312 Vjc=.75 Fc=.5 Cje=10.49p Mje=.4602 Vje=.75
+               Tr=565p Tf=407p Itf=.18 Vtf=3 Xtf=2.5 Rb=10)
*               National        pid=18          case=TO92
*               88-09-07 bam    creation
