.model MPS8598  PNP(Is=10.68f Xti=3 Eg=1.11 Vaf=100 Bf=187.7 Ne=1.401
+               Ise=26.07f Ikf=.2203 Xtb=1.5 Br=1.833 Nc=2 Isc=0 Ikr=0 Rc=.8
+               Cjc=14.16p Mjc=.5585 Vjc=.75 Fc=.5 Cje=25.11p Mje=.3626 Vje=.75
+               Tr=358.6n Tf=591.1p Itf=1.5 Vtf=12 Xtf=50 Rb=10)
*               National        pid=MPS8598     case=TO92
*               88-09-13 bam    creation
