.model MPSA55   PNP(Is=12.27p Xti=3 Eg=1.11 Vaf=100 Bf=91.63 Ne=1.531
+               Ise=12.27p Ikf=1.009 Xtb=1.5 Br=1.287 Nc=2 Isc=0 Ikr=0 Rc=.6
+               Cjc=48.28p Mjc=.5615 Vjc=.75 Fc=.5 Cje=106.7p Mje=.5168 Vje=.75
+               Tr=496.3n Tf=865.8p Itf=.2 Vtf=2 Xtf=.8 Rb=10)
*               Fairchild        pid=67          case=TO92
*               88-09-09 bam    creation

