.model MPSA20   NPN(Is=1.949f Xti=3 Eg=1.11 Vaf=30.7 Bf=873.5 Ne=1.203
+               Ise=2.059f Ikf=73.69m Xtb=1.5 Br=3.237 Nc=2 Isc=0 Ikr=0 Rc=4
+               Cjc=3.898p Mjc=.2858 Vjc=.75 Fc=.5 Cje=6.726p Mje=.3467 Vje=.75
+               Tr=1.207n Tf=637.5p Itf=.15 Vtf=4 Xtf=14 Rb=10)
*               Fairchild        pid=02          case=TO92
*               88-09-07 bam    creation

