.model MPSA18   NPN(Is=33.58f Xti=3 Eg=1.11 Vaf=100 Bf=2.365K Ne=1.579
+               Ise=166.7f Ikf=.1172 Xtb=1.5 Br=5.774 Nc=2 Isc=0 Ikr=0 Rc=1
+               Cjc=4.948p Mjc=.4109 Vjc=.75 Fc=.5 Cje=7.547p Mje=.3765 Vje=.75
+               Tr=800.3p Tf=310.1p Itf=.6 Vtf=6 Xtf=35 Rb=10)
*               Fairchild        pid=MPSA18      case=TO92
*               88-09-14 bam    creation

