.model MPSA05   NPN(Is=8.324f Xti=3 Eg=1.11 Vaf=100 Bf=12.16K Ne=1.368
+               Ise=73.27f Ikf=.1096 Xtb=1.5 Br=11.1 Nc=2 Isc=0 Ikr=0 Rc=.25
+               Cjc=18.36p Mjc=.3843 Vjc=.75 Fc=.5 Cje=55.61p Mje=.3834 Vje=.75
+               Tr=72.15n Tf=516.1p Itf=.5 Vtf=4 Xtf=6 Rb=10)
*               Fairchild        pid=MPSA05      case=TO92
*               88-09-13 bam    creation
