.model MPSH10   NPN(Is=69.28E-18 Xti=3 Eg=1.11 Vaf=100 Bf=308.6 Ne=1.197
+               Ise=69.28E-18 Ikf=22.83m Xtb=1.5 Br=1.11 Nc=2 Isc=0 Ikr=0 Rc=4
+               Cjc=1.042p Mjc=.2468 Vjc=.75 Fc=.5 Cje=1.52p Mje=.3223 Vje=.75
+               Tr=1.558n Tf=135.8p Itf=.27 Vtf=10 Xtf=30 Rb=10)
*               Fairchild        pid=42          case=TO92
*               88-09-07 bam    creation
