.model MPSL51   PNP(Is=21.48f Xti=3 Eg=1.11 Vaf=100 Bf=116.7 Ne=1.362
+               Ise=21.48f Ikf=.1803 Xtb=1.5 Br=3.728 Nc=2 Isc=0 Ikr=0 Rc=1.6
+               Cjc=21.16p Mjc=.5312 Vjc=.75 Fc=.5 Cje=73.39p Mje=.3777 Vje=.75
+               Tr=1.487n Tf=639.1p Itf=0 Vtf=0 Xtf=0 Rb=10)
*               Fairchild        pid=74          case=TO92
*               88-09-09 bam    creation
