.model TN6728A   PNP(Is=9.348f Xti=3 Eg=1.11 Vaf=100 Bf=166.8 Ne=1.459
+               Ise=12.45f Ikf=10.29 Xtb=1.5 Br=8.369 Nc=2 Isc=0 Ikr=0 Rc=.38
+               Cjc=48p Mjc=.5152 Vjc=.75 Fc=.5 Cje=105.6p Mje=.4351 Vje=.75
+               Tr=1.021n Tf=685.2p Itf=.3 Vtf=4 Xtf=10 Rb=10)
*               Fairchild        pid=MPSW55      case=TO92
*               88-09-14 bam    creation
