.model TN6727A  PNP(Is=24.64f Xti=3 Eg=1.11 Vaf=100 Bf=154.5 Ne=1.5 Ise=0
+               Ikf=1.25 Xtb=1.5 Br=1.424 Nc=2 Isc=0 Ikr=0 Rc=.6 Cjc=63.67p
+               Mjc=.4749 Vjc=.75 Fc=.5 Cje=132.4p Mje=.4174 Vje=.75 Tr=5.721n
+               Tf=645.4p Itf=.8 Vtf=6 Xtf=4.5 Rb=10)
*               Fairchild        pid=MPSW51      case=TO92
*               88-09-14 bam    creation
