.model TN6714A   NPN(Is=62.33f Xti=3 Eg=1.11 Vaf=100 Bf=18.52K Ne=1.265
+               Ise=62.33f Ikf=85.68m Xtb=1.5 Br=1.271 Nc=2 Isc=0 Ikr=0 Rc=.5
+               Cjc=22.48p Mjc=.4937 Vjc=.75 Fc=.5 Cje=77.63p Mje=.3822 Vje=.75
+               Tr=6.16n Tf=1.492n Itf=0 Vtf=0 Xtf=0 Rb=10)
*               Fairchild        pid=MPSW01      case=TO92
*               88-09-14 bam    creation
