.model MPSW10   NPN(Is=34.9f Xti=3 Eg=1.11 Vaf=100 Bf=3.069K Ne=1.205 Ise=34.9f
+               Ikf=.1435 Xtb=1.5 Br=6.726 Nc=2 Isc=0 Ikr=0 Rc=7 Cjc=14.62p
+               Mjc=.4962 Vjc=.75 Fc=.5 Cje=57.62p Mje=.3536 Vje=.75 Tr=1.42n
+               Tf=2.056n Itf=.9 Vtf=22 Xtf=270 Rb=10)
*               National        pid=MPSW42      case=TO92
*               88-09-14 bam    creation
