.subckt 2N4174          anode gate cathode
* "Typical" parameters
X1 anode gate cathode Scr params:
+ Vdrm=600v  Vrrm=600v    Ih=10ma      Vtm=1.4v     Itm=15.7
+ dVdt=5e7   Igt=10ma     Vgt=.75v     Ton=1u       Toff=15u
+ Idrm=10u
* 90-5-18    Motorola     DL137, 1985 NR
.ends