**************************************
*      Model Generated by MODPEX     *
*Copyright(c) Symmetry Design Systems*
*         All Rights Reserved        *
*    UNPUBLISHED LICENSED SOFTWARE   *
*   Contains Proprietary Information *
*      Which is The Property of      *
*     SYMMETRY OR ITS LICENSORS      *
*Commercial Use or Resale Restricted *
*   by Symmetry License Agreement    *
**************************************
* Model generated on Oct  7, 99
* Model format: PSpice
* Model characteristics for General
* Semiconductor products only
.MODEL Q2n4124 npn
+IS=4.92518e-13 BF=260 NF=1.06347 VAF=10
+IKF=1.20152 ISE=4.2368e-10 NE=2.90912 BR=2.5257
+NR=1.10347 VAR=100 IKR=9.03858 ISC=4.48609e-12
+NC=3.88651 RB=4.58809 IRB=0.295039 RBM=0.1
+RE=0.0145684 RC=0.579252 XTB=0.843083 XTI=1
+EG=1.16431 CJE=3.17693e-11 VJE=0.4 MJE=0.392681
+TF=6.99564e-10 XTF=1.65704 VTF=0.1 ITF=0.001
+CJC=2.19808e-11 VJC=0.4 MJC=0.271622 XCJC=0.1
+FC=0.8 CJS=0 VJS=0.75 MJS=0.5
+TR=7.70143e-09 PTF=0 KF=0 AF=1

