**************************************
*      Model Generated by MODPEX     *
*Copyright(c) Symmetry Design Systems*
*         All Rights Reserved        *
*    UNPUBLISHED LICENSED SOFTWARE   *
*   Contains Proprietary Information *
*      Which is The Property of      *
*     SYMMETRY OR ITS LICENSORS      *
*Commercial Use or Resale Restricted *
*   by Symmetry License Agreement    *
**************************************
* Model generated on Oct  7, 99
* Model format: PSpice
* Model characteristics for General
* Semiconductor products only
.MODEL Q2n4126 pnp
+IS=3.53382e-13 BF=250 NF=1.03633 VAF=10
+IKF=1.50993 ISE=1.52016e-10 NE=2.5177 BR=1.80998
+NR=1.09703 VAR=100 IKR=10 ISC=1.0412e-12
+NC=3.93165 RB=8.00104 IRB=0.1 RBM=0.1
+RE=0.0671332 RC=0.335666 XTB=0.729326 XTI=1
+EG=1.18823 CJE=3.70607e-11 VJE=0.4 MJE=0.451133
+TF=7.87778e-10 XTF=0.472551 VTF=1.07727 ITF=0.001
+CJC=1.80319e-11 VJC=0.95 MJC=0.287671 XCJC=0.89987
+FC=0.8 CJS=0 VJS=0.75 MJS=0.5
+TR=1e-07 PTF=0 KF=0 AF=1

