**************************************
*      Model Generated by MODPEX     *
*Copyright(c) Symmetry Design Systems*
*         All Rights Reserved        *
*    UNPUBLISHED LICENSED SOFTWARE   *
*   Contains Proprietary Information *
*      Which is The Property of      *
*     SYMMETRY OR ITS LICENSORS      *
*Commercial Use or Resale Restricted *
*   by Symmetry License Agreement    *
**************************************
* Model generated on Oct  7, 99
* Model format: PSpice
* Model characteristics for General
* Semiconductor products only
.MODEL Qbc327 pnp
+IS=2.69972e-13 BF=255 NF=1.02306 VAF=10
+IKF=1.61069 ISE=1.54904e-10 NE=2.52512 BR=2.08944
+NR=1.06916 VAR=100 IKR=10 ISC=8.82272e-11
+NC=3.4075 RB=5.73192 IRB=0.1 RBM=0.1
+RE=0.0874431 RC=0.437216 XTB=0.614751 XTI=1
+EG=1.206 CJE=3.79878e-11 VJE=0.4 MJE=0.428861
+TF=7.72055e-10 XTF=0.545495 VTF=1.21513 ITF=0.001
+CJC=2.55655e-11 VJC=0.95 MJC=0.434575 XCJC=0.899807
+FC=0.8 CJS=0 VJS=0.75 MJS=0.5
+TR=1e-07 PTF=0 KF=0 AF=1

