**************************************
*      Model Generated by MODPEX     *
*Copyright(c) Symmetry Design Systems*
*         All Rights Reserved        *
*    UNPUBLISHED LICENSED SOFTWARE   *
*   Contains Proprietary Information *
*      Which is The Property of      *
*     SYMMETRY OR ITS LICENSORS      *
*Commercial Use or Resale Restricted *
*   by Symmetry License Agreement    *
**************************************
* Model generated on Oct  7, 99
* Model format: PSpice
* Model characteristics for General
* Semiconductor products only
.MODEL Qbc807 pnp
+IS=3.05645e-13 BF=265.764 NF=1.03323 VAF=4.45638
+IKF=1.09119 ISE=4.46864e-12 NE=1.76556 BR=3.16571
+NR=1.06973 VAR=44.5638 IKR=0.0618083 ISC=4.46864e-12
+NC=3.91584 RB=6.47913 IRB=0.1 RBM=0.1
+RE=0.0781322 RC=0.390661 XTB=0.568224 XTI=1
+EG=1.18148 CJE=7.45882e-11 VJE=0.651218 MJE=0.342168
+TF=6.85443e-10 XTF=1.20233 VTF=2.94253 ITF=0.163355
+CJC=2.71895e-11 VJC=0.95 MJC=0.410609 XCJC=0.1
+FC=0.8 CJS=0 VJS=0.75 MJS=0.5
+TR=1e-07 PTF=0 KF=0 AF=1

