**************************************
*      Model Generated by MODPEX     *
*Copyright(c) Symmetry Design Systems*
*         All Rights Reserved        *
*    UNPUBLISHED LICENSED SOFTWARE   *
*   Contains Proprietary Information *
*      Which is The Property of      *
*     SYMMETRY OR ITS LICENSORS      *
*Commercial Use or Resale Restricted *
*   by Symmetry License Agreement    *
**************************************
* Model generated on Oct  7, 99
* Model format: PSpice
* Model characteristics for General
* Semiconductor products only
.MODEL Qbc817 npn
+IS=2.43485e-13 BF=270 NF=1.01347 VAF=10
+IKF=1.12487 ISE=7.17747e-12 NE=1.84302 BR=2.51332
+NR=1.04566 VAR=86.7653 IKR=0.149889 ISC=2.42047e-12
+NC=3.94859 RB=6.50128 IRB=0.1 RBM=0.1
+RE=0.0814215 RC=0.407107 XTB=0.759098 XTI=1
+EG=1.206 CJE=5.10473e-11 VJE=0.561234 MJE=0.412728
+TF=7.1424e-10 XTF=1.09929 VTF=1.86025 ITF=0.175457
+CJC=5.516e-11 VJC=0.4 MJC=0.529364 XCJC=0.1
+FC=0.8 CJS=0 VJS=0.75 MJS=0.5
+TR=1e-07 PTF=0 KF=0 AF=1

