**************************************
*      Model Generated by MODPEX     *
*Copyright(c) Symmetry Design Systems*
*         All Rights Reserved        *
*    UNPUBLISHED LICENSED SOFTWARE   *
*   Contains Proprietary Information *
*      Which is The Property of      *
*     SYMMETRY OR ITS LICENSORS      *
*Commercial Use or Resale Restricted *
*   by Symmetry License Agreement    *
**************************************
* Model generated on Oct  7, 99
* Model format: PSpice
* Model characteristics for General
* Semiconductor products only
.MODEL Qbc846 npn
+IS=3.28369e-13 BF=340 NF=1.1032 VAF=565.927
+IKF=0.260334 ISE=2.41968e-12 NE=1.89314 BR=0.24799
+NR=1.22267 VAR=1000 IKR=0.239658 ISC=5.94064e-13
+NC=3.79206 RB=0.5 IRB=0.1 RBM=0.01
+RE=1.06954 RC=0.0685763 XTB=1.1253 XTI=1
+EG=1.14297 CJE=9.95491e-12 VJE=0.735829 MJE=0.365775
+TF=5.08264e-10 XTF=10.4577 VTF=2.91336 ITF=0.253865
+CJC=9.41145e-12 VJC=0.4 MJC=0.390508 XCJC=0.1
+FC=0.8 CJS=0 VJS=0.75 MJS=0.5
+TR=1e-07 PTF=0 KF=0 AF=1

