**************************************
*      Model Generated by MODPEX     *
*Copyright(c) Symmetry Design Systems*
*         All Rights Reserved        *
*    UNPUBLISHED LICENSED SOFTWARE   *
*   Contains Proprietary Information *
*      Which is The Property of      *
*     SYMMETRY OR ITS LICENSORS      *
*Commercial Use or Resale Restricted *
*   by Symmetry License Agreement    *
**************************************
* Model generated on Jul 15, 99
* MODEL FORMAT: PSpice
.MODEL Dgbl08 d
+IS=1.118e-07 RS=0.01 N=2 EG=1.3
+XTI=4 BV=950 IBV=1e-06 CJO=1.0553e-10
+VJ=0.4 M=0.333082 FC=0.5 TT=1e-09
+KF=0 AF=1
