**************************************
*      Model Generated by MODPEX     *
*Copyright(c) Symmetry Design Systems*
*         All Rights Reserved        *
*    UNPUBLISHED LICENSED SOFTWARE   *
*   Contains Proprietary Information *
*      Which is The Property of      *
*     SYMMETRY OR ITS LICENSORS      *
*Commercial Use or Resale Restricted *
*   by Symmetry License Agreement    *
**************************************
* Model generated on Jul 15, 99
* MODEL FORMAT: PSpice
.MODEL Dmbrd20100ct d
+IS=1.9e-06 RS=0.0191117 N=1.31633 EG=0.732464
+XTI=3.80447 BV=150 IBV=0.0001 CJO=5.24e-10
+VJ=0.7 M=0.5 FC=0.5 TT=4.214e-08
+KF=0 AF=1

