**************************************
*      Model Generated by MODPEX     *
*Copyright(c) Symmetry Design Systems*
*         All Rights Reserved        *
*    UNPUBLISHED LICENSED SOFTWARE   *
*   Contains Proprietary Information *
*      Which is The Property of      *
*     SYMMETRY OR ITS LICENSORS      *
*Commercial Use or Resale Restricted *
*   by Symmetry License Agreement    *
**************************************
* Model generated on Jul 19, 99
* MODEL FORMAT: PSpice
.MODEL Dmbrf1045 d
+IS=3.46063e-06 RS=0.0141262 N=1.08107 EG=0.694062
+XTI=0.532339 BV=60 IBV=0.0001 CJO=1.14679e-09
+VJ=1.5 M=0.560347 FC=0.5 TT=1e-09
+KF=0 AF=1
