**************************************
*      Model Generated by MODPEX     *
*Copyright(c) Symmetry Design Systems*
*         All Rights Reserved        *
*    UNPUBLISHED LICENSED SOFTWARE   *
*   Contains Proprietary Information *
*      Which is The Property of      *
*     SYMMETRY OR ITS LICENSORS      *
*Commercial Use or Resale Restricted *
*   by Symmetry License Agreement    *
**************************************
* Model generated on Jul 19, 99
* MODEL FORMAT: PSpice
.MODEL Dmbrf1060 d
+IS=3.95535e-06 RS=0.0206647 N=1.22018 EG=0.710013
+XTI=0.733611 BV=80 IBV=0.0001 CJO=9.9734e-10
+VJ=1.31037 M=0.569065 FC=0.5 TT=1e-09
+KF=0 AF=1

