**************************************
*      Model Generated by MODPEX     *
*Copyright(c) Symmetry Design Systems*
*         All Rights Reserved        *
*    UNPUBLISHED LICENSED SOFTWARE   *
*   Contains Proprietary Information *
*      Which is The Property of      *
*     SYMMETRY OR ITS LICENSORS      *
*Commercial Use or Resale Restricted *
*   by Symmetry License Agreement    *
**************************************
* Model generated on Jul 19, 99
* MODEL FORMAT: PSpice
.MODEL Dmbrf2560ct d
+IS=4.93966e-06 RS=0.0127517 N=1.26208 EG=0.800165
+XTI=0.510662 BV=80 IBV=0.0001 CJO=1.54648e-09
+VJ=0.4 M=0.441179 FC=0.5 TT=1e-09
+KF=0 AF=1

