**************************************
*      Model Generated by MODPEX     *
*Copyright(c) Symmetry Design Systems*
*         All Rights Reserved        *
*    UNPUBLISHED LICENSED SOFTWARE   *
*   Contains Proprietary Information *
*      Which is The Property of      *
*     SYMMETRY OR ITS LICENSORS      *
*Commercial Use or Resale Restricted *
*   by Symmetry License Agreement    *
**************************************
* Model generated on Jul 21, 99
* MODEL FORMAT: PSpice
.MODEL Dmbrf1660 d
+IS=4.94635e-07 RS=0.0119983 N=1.05695 EG=0.698901
+XTI=3.84702 BV=80 IBV=0.0001 CJO=1.42758e-09
+VJ=1.49076 M=0.581162 FC=0.5 TT=1e-09
+KF=0 AF=1
