**************************************
*      Model Generated by MODPEX     *
*Copyright(c) Symmetry Design Systems*
*         All Rights Reserved        *
*    UNPUBLISHED LICENSED SOFTWARE   *
*   Contains Proprietary Information *
*      Which is The Property of      *
*     SYMMETRY OR ITS LICENSORS      *
*Commercial Use or Resale Restricted *
*   by Symmetry License Agreement    *
**************************************
* Model generated on Jul 19, 99
* MODEL FORMAT: PSpice
.MODEL Dsblf1640ct d
+IS=9.4472e-07 RS=0.0172352 N=0.873646 EG=0.693228
+XTI=0.5 BV=50 IBV=0.0001 CJO=1.50148e-09
+VJ=1.5 M=0.653095 FC=0.5 TT=1e-09
+KF=0 AF=1

