****************************************
* (c)1999 Thomatronik GmbH             *
*   info@thomatronik.de                *
*                                      *
* Author: Arpad Buermen                *
*   Arpad.Burmen@ieee.org              *
****************************************

.MODEL SL13 D (
+   N=1.62722
+  IS=2.70884E-005
+  RS=0.022326
+  EG=0.877137
+ XTI=2.0278
+ CJO=4.73821E-010
+  VJ=0.651969
+   M=0.516077
+  FC=0.5
+  TT=1.4427E-009
+  BV=30
+ IBV=0.05
+  KF=0
+  AF=1 )
