****************************************
* (c)1999 Thomatronik GmbH             *
*   info@thomatronik.de                *
*                                      *
* Author: Arpad Buermen                *
*   Arpad.Burmen@ieee.org              *
****************************************

.MODEL SL23 D (
+   N=1.26262
+  IS=1.55836E-005
+  RS=0.0164204
+  EG=0.721708
+ XTI=2.01648
+ CJO=9.95085E-010
+  VJ=0.479367
+   M=0.474828
+  FC=0.5
+  TT=1.4427E-009
+  BV=30
+ IBV=0.05
+  KF=0
+  AF=1 )
