**************************************
*      Model Generated by MODPEX     *
*Copyright(c) Symmetry Design Systems*
*         All Rights Reserved        *
*    UNPUBLISHED LICENSED SOFTWARE   *
*   Contains Proprietary Information *
*      Which is The Property of      *
*     SYMMETRY OR ITS LICENSORS      *
*Commercial Use or Resale Restricted *
*   by Symmetry License Agreement    *
**************************************
* Model generated on Jul 19, 99
* MODEL FORMAT: PSpice
.MODEL Dsl43 d
+IS=3.28335e-05 RS=0.0102752 N=1.03316 EG=0.6
+XTI=2.15486 BV=40 IBV=0.001 CJO=3.17277e-09
+VJ=3 M=0.723186 FC=0.5 TT=1e-09
+KF=0 AF=1
