****************************************
* (c)2000 Thomatronik GmbH             *
*   info@thomatronik.de                *
*                                      *
* Author: Arpad Buermen                *
*   Arpad.Buermen@fe.uni-lj.si         *
****************************************

.MODEL SL44 D(
+   N=1.30464
+  IS=9.39389E-005
+  RS=0.00887496
+  EG=0.661056
+ XTI=3.04726
+ CJO=3.19877E-009
+  VJ=4.22076
+   M=0.85
+  FC=0.5
+  TT=1.4427E-009
+  BV=40
+ IBV=0.0005
+  KF=0
+  AF=1 )
