SS12-14
.Model SS12,13,14 D
 + is=0.000000861
 + n=1.034
 + rs=0.04527
 + xti=-15.67
 + cjo=0.0000000003007
 + m=.4259
 + vj=.4316
 + isr=0.0000000001
 + bv=reverse voltage*
 + ibv=40u
 + tt=0.00000001053

* 20 for SS12
* 30 for SS13
* 40 for SS14
