SS15,16
.MODEL SS15,16 D
 + is=0.000005978
 + n=1.408
 + rs=0.06809
 + xti=-11.80
 + cjo=0.0000000002959
 + m=.3333
 + vj=.75
 + isr=0.0000000001
 + bv=reverse voltage*
 + ibv=2u
 + tt=0.000001271

* 50 for SS15
* 60 for SS16
