**************************************
*      Model Generated by MODPEX     *
*Copyright(c) Symmetry Design Systems*
*         All Rights Reserved        *
*    UNPUBLISHED LICENSED SOFTWARE   *
*   Contains Proprietary Information *
*      Which is The Property of      *
*     SYMMETRY OR ITS LICENSORS      *
*Commercial Use or Resale Restricted *
*   by Symmetry License Agreement    *
**************************************
* Model generated on Jul 20, 99
* MODEL FORMAT: PSpice
.MODEL Dss210 d
+IS=8.11678e-06 RS=0.0176142 N=2 EG=0.9147
+XTI=0.5 BV=120 IBV=1e-05 CJO=1e-10
+VJ=0.7 M=0.5 FC=0.5 TT=1e-09
+KF=0 AF=1

