*version 6.3 4246764805
lib C:\Pspice\WORK\TubeTENA.slb 705835258
u 25702
R? 91
C? 34
D? 36
V? 15
L? 2
U? 2
HB? 2
TU? 15
OUT_XFRMR? 6
NS? 14
E? 5
M? 8
X? 2
PM? 2
@libraries
C:\Pspice\WORK\TubeTENA  [.slb]
@analysis
.AC 1 3 0
+0 20
+1 1
+2 100K
.TRAN 1 0 0 0
+0 .1MS
+1 10MS
+2 0
+3 .005MS
+4 200
+5 V(SPKR)
+6 9
.OPT 0 0 0 0 0 0 0 0 0 0 0 0 0 0 0
.STEP 0 2 4
+ 0 PAR1
+ 4 .01
+ 5 1
+ 6 2
.TF 0  
.OP 0 
.PROBE 0 0 1 1 0 3
.LIB C:\PSPICE\WORK\TUBE.LIB
@targets
@attributes
@translators
a 0 u 13 0 0 0 hln 100 PSPICE=PSPICE
a 0 u 13 0 0 0 hln 100 PCBOARDS=PCB
a 0 u 13 0 0 0 hln 100 CADSTAR=PCB
a 0 u 13 0 0 0 hln 100 EDIF=PCB
a 0 u 13 0 0 0 hln 100 ORCAD=PCB
a 0 u 13 0 0 0 hln 100 PADS=PCB
a 0 u 13 0 0 0 hln 100 PCAD=PCB
a 0 u 13 0 0 0 hln 100 PROTEL=PCB
a 0 u 13 0 0 0 hln 100 TANGO=PCB
a 0 u 13 0 0 0 hln 100 SCICARDS=PCB
a 0 u 13 0 0 0 hln 100 POLARIS=PCB
@index
pageloc 1 0 24086 TENA 1 AMPLIFIER
@status
n 0 101:07:30:04:42:56;999168176 e 
s 0 101:07:30:04:44:08;999168248 e 
*page 1 0 1520 970 iA
@ports
port 44 GND_EARTH 90 380 h
port 1328 BUBBLE 595 215 d
a 1 x 14 0 20 -13 hcn 100 LABEL=BIAS
port 3015 BUBBLE 330 140 d
a 1 x 14 0 10 -14 hcn 100 LABEL=V3
port 4037 BUBBLE 745 285 v
a 1 x 14 0 20 20 hcn 100 LABEL=VSPLY
port 7717 BUBBLE 525 85 V
a 1 x 14 0 10 0 hcn 100 LABEL=V2
port 7718 BUBBLE 580 485 d
a 1 x 14 0 10 -12 hcn 100 LABEL=V2
port 12061 BUBBLE 685 290 d
a 1 x 14 0 20 -14 hcn 100 LABEL=16_OHM
port 12063 BUBBLE 810 215 d
a 1 x 14 0 0 -8 hcn 100 LABEL=16_OHM
port 12064 BUBBLE 810 335 d
a 1 x 14 0 20 -4 hcn 100 LABEL=COM
port 16875 GND_EARTH 420 270 h
port 17418 BUBBLE 595 345 V
a 1 x 14 0 10 0 hcn 100 LABEL=BIAS
port 18596 GND_EARTH 790 285 h
port 19923 GND_EARTH 110 495 h
port 19924 BUBBLE 90 235 v
a 1 x 14 0 20 22 hcn 100 LABEL=INPUT
port 19925 BUBBLE 110 450 h
a 1 x 14 0 14 -2 hcn 100 LABEL=INPUT
port 21486 BUBBLE 620 250 d
a 1 x 14 0 20 -16 hcn 100 LABEL=COM
port 22272 BUBBLE 300 440 h
a 1 x 14 0 10 -2 hcn 100 LABEL=VSPLY
port 22273 GND_EARTH 300 505 h
port 22274 BUBBLE 360 440 h
a 1 x 14 0 10 -2 hcn 100 LABEL=V2
port 22275 BUBBLE 425 440 h
a 1 x 14 0 10 -2 hcn 100 LABEL=V3
port 23338 BUBBLE 745 255 v
a 1 x 14 0 22 20 hcn 100 LABEL=UL5
port 23339 BUBBLE 745 315 v
a 1 x 14 0 0 18 hcn 100 LABEL=UL6
port 23340 BUBBLE 685 95 V
a 1 x 14 0 20 14 hcn 100 LABEL=UL5
port 23341 BUBBLE 685 470 V
a 1 x 14 0 22 16 hcn 100 LABEL=UL6
port 23342 BUBBLE 745 200 v
a 1 x 14 0 -2 20 hcn 100 LABEL=PL5
port 23343 BUBBLE 745 370 v
a 1 x 14 0 20 18 hcn 100 LABEL=PL6
port 24366 GND_EARTH 795 525 h
port 24385 BUBBLE 730 500 v
a 1 x 14 0 12 0 hcn 100 LABEL=8_OHM
port 24386 BUBBLE 730 510 v
a 1 x 14 0 8 2 hcn 100 LABEL=COM
port 24398 BUBBLE 810 265 d
a 1 x 14 0 23 -23 hcn 100 LABEL=8_OHM
port 24441 GND_EARTH 205 495 h
port 24442 BUBBLE 205 450 h
a 1 x 14 0 10 -2 hcn 100 LABEL=BIAS
port 25630 BUBBLE 685 210 v
a 1 x 14 0 10 -2 hcn 100 LABEL=5C
port 25632 BUBBLE 685 360 v
a 1 x 14 0 10 0 hcn 100 LABEL=6C
@parts
part 1 R 125 235 h
a 0 u 13 0 11 27 hln 100 VALUE=2.2K
a 0 sp 0 0 0 10 hlb 100 PART=R
a 0 x 0 0 0 0 hln 100 PKGREF=R1GS
a 0 s 0 0 0 0 hln 100 GATE=
a 0 xp 9 0 9 0 hln 100 REFDES=R1GS
part 2 R 210 325 v
a 0 u 13 0 11 1 hln 100 VALUE=820
a 0 sp 0 0 0 10 hlb 100 PART=R
a 0 x 0 0 0 0 hln 100 PKGREF=R1C
a 0 s 0 0 0 0 hln 100 GATE=
a 0 xp 9 0 23 2 hln 100 REFDES=R1C
part 3 R 210 375 v
a 0 u 13 0 11 1 hln 100 VALUE=1500
a 0 sp 0 0 0 10 hlb 100 PART=R
a 0 x 0 0 0 0 hln 100 PKGREF=R1B
a 0 s 0 0 0 0 hln 100 GATE=
a 0 xp 9 0 23 2 hln 100 REFDES=R1B
part 4 R 210 185 v
a 0 u 13 0 11 45 hln 100 VALUE=100k
a 0 sp 0 0 0 10 hlb 100 PART=R
a 0 x 0 0 0 0 hln 100 PKGREF=R1P
a 0 s 0 0 0 0 hln 100 GATE=
a 0 xp 9 0 23 42 hln 100 REFDES=R1P
part 9 C 90 235 h
a 0 u 13 0 5 27 hln 100 VALUE=.1UF
a 0 sp 0 0 0 10 hlb 100 PART=C
a 0 x 0 0 0 0 hln 100 PKGREF=C1G
a 0 s 0 0 0 0 hln 100 GATE=
a 0 xp 9 0 7 0 hln 100 REFDES=C1G
part 10 C 235 195 h
a 0 u 13 0 1 27 hln 100 VALUE=.02UF
a 0 sp 0 0 0 10 hlb 100 PART=C
a 0 x 0 0 0 0 hln 100 PKGREF=C2G
a 0 s 0 0 0 0 hln 100 GATE=
a 0 xp 9 0 5 0 hln 100 REFDES=C2G
part 14 R 125 300 v
a 0 u 13 0 11 45 hln 100 VALUE=470k
a 0 sp 0 0 0 10 hlb 100 PART=R
a 0 x 0 0 0 0 hln 100 PKGREF=R1G
a 0 s 0 0 0 0 hln 100 GATE=
a 0 xp 9 0 23 43 hln 100 REFDES=R1G
part 15 R 270 305 v
a 0 u 13 0 11 45 hln 100 VALUE=470k
a 0 sp 0 0 0 10 hlb 100 PART=R
a 0 x 0 0 0 0 hln 100 PKGREF=R2G
a 0 s 0 0 0 0 hln 100 GATE=
a 0 xp 9 0 22 42 hln 100 REFDES=R2G
part 16 R 330 330 v
a 0 u 13 0 11 1 hln 100 VALUE=1200
a 0 sp 0 0 0 10 hlb 100 PART=R
a 0 x 0 0 0 0 hln 100 PKGREF=R2C
a 0 s 0 0 0 0 hln 100 GATE=
a 0 xp 9 0 23 0 hln 100 REFDES=R2C
part 17 R 330 380 v
a 0 u 13 0 13 1 hln 100 VALUE=100k
a 0 sp 0 0 0 10 hlb 100 PART=R
a 0 x 0 0 0 0 hln 100 PKGREF=R2B
a 0 s 0 0 0 0 hln 100 GATE=
a 0 xp 9 0 25 2 hln 100 REFDES=R2B
part 18 R 330 185 v
a 0 u 13 0 11 3 hln 100 VALUE=102k
a 0 sp 0 0 0 10 hlb 100 PART=R
a 0 x 0 0 0 0 hln 100 PKGREF=R2P
a 0 s 0 0 0 0 hln 100 GATE=
a 0 xp 9 0 23 2 hln 100 REFDES=R2P
part 23 R 595 215 v
a 0 u 13 0 15 45 hln 100 VALUE=100K
a 0 sp 0 0 0 10 hlb 100 PART=R
a 0 x 0 0 0 0 hln 100 PKGREF=R5G
a 0 s 0 0 0 0 hln 100 GATE=
a 0 xp 9 0 15 4 hln 100 REFDES=R5G
part 185 R 90 325 v
a 0 u 13 0 9 43 hln 100 VALUE=470k
a 0 sp 0 0 0 10 hlb 100 PART=R
a 0 x 0 0 0 0 hln 100 PKGREF=R1L
a 0 s 0 0 0 0 hln 100 GATE=
a 0 xp 9 0 23 40 hln 100 REFDES=R1L
part 862 R 685 260 v
a 0 u 13 0 11 33 hln 100 VALUE=10
a 0 sp 0 0 0 10 hlb 100 PART=R
a 0 x 0 0 0 0 hln 100 PKGREF=R5C
a 0 s 0 0 0 0 hln 100 GATE=
a 0 xp 9 0 23 41 hln 100 REFDES=R5C
part 863 R 685 355 v
a 0 u 13 0 11 33 hln 100 VALUE=10
a 0 sp 0 0 0 10 hlb 100 PART=R
a 0 x 0 0 0 0 hln 100 PKGREF=R6C
a 0 s 0 0 0 0 hln 100 GATE=
a 0 xp 9 0 23 41 hln 100 REFDES=R6C
part 966 R 645 95 h
a 0 u 13 0 13 27 hln 100 VALUE=100
a 0 sp 0 0 0 10 hlb 100 PART=R
a 0 x 0 0 0 0 hln 100 PKGREF=R5G2
a 0 s 0 0 0 0 hln 100 GATE=
a 0 xp 9 0 9 0 hln 100 REFDES=R5G2
part 968 R 645 470 h
a 0 u 13 0 11 25 hln 100 VALUE=100
a 0 sp 0 0 0 10 hlb 100 PART=R
a 0 x 0 0 0 0 hln 100 PKGREF=R6G2
a 0 s 0 0 0 0 hln 100 GATE=
a 0 xp 9 0 9 0 hln 100 REFDES=R6G2
part 7654 R 525 125 V
a 0 u 13 0 11 41 hln 100 VALUE=47K
a 0 sp 0 0 0 10 hlb 100 PART=R
a 0 x 0 0 0 0 hln 100 PKGREF=R3P
a 0 s 0 0 0 0 hln 100 GATE=
a 0 xp 9 0 23 40 hln 100 REFDES=R3P
part 7655 R 525 435 D
a 0 u 13 0 29 1 hln 100 VALUE=47K
a 0 sp 0 0 0 10 hlb 100 PART=R
a 0 x 0 0 0 0 hln 100 PKGREF=R4P
a 0 s 0 0 0 0 hln 100 GATE=
a 0 xp 9 0 19 2 hln 100 REFDES=R4P
part 7656 R 435 250 V
a 0 u 13 0 9 5 hln 100 VALUE=1MEG
a 0 sp 0 0 0 10 hlb 100 PART=R
a 0 x 0 0 0 0 hln 100 PKGREF=R3G
a 0 s 0 0 0 0 hln 100 GATE=
a 0 xp 9 0 21 2 hln 100 REFDES=R3G
part 7657 R 435 290 d
a 0 u 13 0 29 3 hln 100 VALUE=1MEG
a 0 sp 0 0 0 10 hlb 100 PART=R
a 0 x 0 0 0 0 hln 100 PKGREF=R4G
a 0 s 0 0 0 0 hln 100 GATE=
a 0 xp 9 0 18 0 hln 100 REFDES=R4G
part 10940 R 810 325 v
a 0 u 13 0 11 29 hln 100 VALUE=8
a 0 sp 0 0 0 10 hlb 100 PART=R
a 0 x 0 0 0 0 hln 100 PKGREF=RLD
a 0 s 0 0 0 0 hln 100 GATE=
a 0 xp 9 0 23 40 hln 100 REFDES=RLD
part 17399 C 555 155 h
a 0 u 13 0 5 27 hln 100 VALUE=.5UF
a 0 sp 0 0 0 10 hlb 100 PART=C
a 0 x 0 0 0 0 hln 100 PKGREF=C3P
a 0 s 0 0 0 0 hln 100 GATE=
a 0 xp 9 0 7 2 hln 100 REFDES=C3P
part 17400 C 550 395 h
a 0 u 13 0 5 27 hln 100 VALUE=.5UF
a 0 sp 0 0 0 10 hlb 100 PART=C
a 0 x 0 0 0 0 hln 100 PKGREF=C4P
a 0 s 0 0 0 0 hln 100 GATE=
a 0 xp 9 0 5 0 hln 100 REFDES=C4P
part 17417 R 595 345 D
a 0 u 13 0 23 45 hln 100 VALUE=100K
a 0 sp 0 0 0 10 hlb 100 PART=R
a 0 x 0 0 0 0 hln 100 PKGREF=R6G
a 0 s 0 0 0 0 hln 100 GATE=
a 0 xp 9 0 23 2 hln 100 REFDES=R6G
part 5931 12AX7 210 235 h
a 0 s 11 0 -4 82 hlb 100 PART=12AX7
a 0 x 0 0 0 0 hln 100 PKGREF=TU1
a 1 xp 9 0 -4 66 hln 100 REFDES=TU1
part 5932 12AX7 330 235 h
a 0 s 11 0 0 10 hlb 100 PART=12AX7
a 0 x 0 0 0 0 hln 100 PKGREF=TU2
a 1 xp 9 0 8 -4 hln 100 REFDES=TU2
part 6093 6550 685 165 h
a 0 s 11 0 6 8 hlb 100 PART=6550
a 0 x 0 0 0 0 hln 100 PKGREF=TU5
a 1 xp 9 0 64 14 hln 100 REFDES=TU5
part 6095 6550 685 400 U
a 0 s 11 0 30 4 hlb 100 PART=6550
a 0 x 0 0 0 0 hln 100 PKGREF=TU6
a 1 xp 9 0 80 14 hln 100 REFDES=TU6
part 17047 12AU7 525 195 h
a 0 s 11 0 64 70 hlb 100 PART=12AU7
a 0 x 0 0 0 0 hln 100 PKGREF=TU3
a 1 xp 9 0 70 56 hln 100 REFDES=TU3
part 17048 12AU7 525 355 U
a 0 s 11 0 100 64 hlb 100 PART=12AU7
a 0 x 0 0 0 0 hln 100 PKGREF=TU4
a 1 xp 9 0 93 52 hln 100 REFDES=TU4
part 19919 VSRC 110 450 h
a 1 u 0 0 0 0 hcn 100 DC=0
a 1 u 13 27 28 40 hcn 100 AC=1
a 1 u 13 0 55 6 hcn 100 TRAN=SIN(0 2.1 200)
a 0 x 0 0 0 0 hln 100 PKGREF=VIN
a 1 xp 9 0 -6 6 hcn 100 REFDES=VIN
part 20219 R 560 290 h
a 0 u 13 0 9 27 hln 100 VALUE=4.7K
a 0 sp 0 0 0 10 hlb 100 PART=R
a 0 x 0 0 0 0 hln 100 PKGREF=R4F
a 0 s 0 0 0 0 hln 100 GATE=
a 0 xp 9 0 11 0 hln 100 REFDES=R4F
part 20220 R 560 250 h
a 0 u 13 0 7 25 hln 100 VALUE=4.7K
a 0 sp 0 0 0 10 hlb 100 PART=R
a 0 x 0 0 0 0 hln 100 PKGREF=R3F
a 0 s 0 0 0 0 hln 100 GATE=
a 0 xp 9 0 7 0 hln 100 REFDES=R3F
part 20877 C 475 145 d
a 0 u 13 0 9 7 hln 100 VALUE=180PF
a 0 sp 0 0 0 10 hlb 100 PART=C
a 0 x 0 0 0 0 hln 100 PKGREF=C3M
a 0 s 0 0 0 0 hln 100 GATE=
a 0 xp 9 0 9 36 hln 100 REFDES=C3M
part 20878 C 475 380 D
a 0 u 13 0 29 45 hln 100 VALUE=180PF
a 0 sp 0 0 0 10 hlb 100 PART=C
a 0 x 0 0 0 0 hln 100 PKGREF=C4M
a 0 s 0 0 0 0 hln 100 GATE=
a 0 xp 9 0 8 38 hln 100 REFDES=C4M
part 21745 R 435 195 h
a 0 u 13 0 9 27 hln 100 VALUE=10K
a 0 sp 0 0 0 10 hlb 100 PART=R
a 0 x 0 0 0 0 hln 100 PKGREF=R3GS
a 0 s 0 0 0 0 hln 100 GATE=
a 0 xp 9 0 5 0 hln 100 REFDES=R3GS
part 21746 R 435 355 h
a 0 u 13 0 9 27 hln 100 VALUE=10K
a 0 sp 0 0 0 10 hlb 100 PART=R
a 0 x 0 0 0 0 hln 100 PKGREF=R4GS
a 0 s 0 0 0 0 hln 100 GATE=
a 0 xp 9 0 9 0 hln 100 REFDES=R4GS
part 22267 VSRC 300 450 h
a 1 u 13 0 -6 40 hcn 100 DC=480
a 1 u 0 0 0 0 hcn 100 AC=0
a 0 x 0 0 0 0 hln 100 PKGREF=VSPLY
a 1 xp 9 0 -10 6 hcn 100 REFDES=VSPLY
part 22268 R 310 440 h
a 0 u 13 0 11 27 hln 100 VALUE=5.6K
a 0 sp 0 0 0 10 hlb 100 PART=R
a 0 x 0 0 0 0 hln 100 PKGREF=RP1
a 0 s 0 0 0 0 hln 100 GATE=
a 0 xp 9 0 13 0 hln 100 REFDES=RP1
part 22269 R 370 440 h
a 0 u 13 0 13 27 hln 100 VALUE=15K
a 0 sp 0 0 0 10 hlb 100 PART=R
a 0 x 0 0 0 0 hln 100 PKGREF=RP2
a 0 s 0 0 0 0 hln 100 GATE=
a 0 xp 9 0 13 0 hln 100 REFDES=RP2
part 22270 C 360 490 v
a 0 u 13 0 -1 7 hln 100 VALUE=100UF
a 0 sp 0 0 0 10 hlb 100 PART=C
a 0 x 0 0 0 0 hln 100 PKGREF=CP1
a 0 s 0 0 0 0 hln 100 GATE=
a 0 xp 9 0 21 6 hln 100 REFDES=CP1
part 22271 C 425 490 V
a 0 u 13 0 -1 9 hln 100 VALUE=100UF
a 0 sp 0 0 0 10 hlb 100 PART=C
a 0 x 0 0 0 0 hln 100 PKGREF=CP2
a 0 s 0 0 0 0 hln 100 GATE=
a 0 xp 9 0 23 6 hln 100 REFDES=CP2
part 22562 C 395 355 h
a 0 u 13 0 -1 29 hln 100 VALUE=.05UF
a 0 sp 0 0 0 10 hlb 100 PART=C
a 0 x 0 0 0 0 hln 100 PKGREF=C4G
a 0 s 0 0 0 0 hln 100 GATE=
a 0 xp 9 0 7 0 hln 100 REFDES=C4G
part 22581 C 395 195 h
a 0 u 13 0 1 27 hln 100 VALUE=.05UF
a 0 sp 0 0 0 10 hlb 100 PART=C
a 0 x 0 0 0 0 hln 100 PKGREF=C3G
a 0 s 0 0 0 0 hln 100 GATE=
a 0 xp 9 0 5 2 hln 100 REFDES=C3G
part 23983 R 810 260 V
a 0 u 13 0 9 3 hln 100 VALUE=1G
a 0 sp 0 0 0 10 hlb 100 PART=R
a 0 x 0 0 0 0 hln 100 PKGREF=R16
a 0 s 0 0 0 0 hln 100 GATE=
a 0 xp 9 0 21 4 hln 100 REFDES=R16
part 24194 DYNA_OUTPUT_XFRMR 765 290 h
a 0 sp 11 0 6 -6 hlb 100 PART=DYNA_OUTPUT_XFRMR
a 0 a 0 0 0 0 hln 100 PKGREF=OUT_XFRMR5
a 1 ap 0 0 -12 -6 hln 100 REFDES=OUT_XFRMR5
part 24364 E 730 500 h
a 0 s 11 0 10 34 hln 100 PART=E
a 0 a 0 0 0 0 hln 100 PKGREF=E4
a 1 ap 9 0 10 4 hln 100 REFDES=E4
a 0 u 13 13 2 46 hln 100 GAIN=1
part 24365 R 795 485 d
a 0 u 13 0 33 3 hln 100 VALUE=1G
a 0 sp 0 0 0 10 hlb 100 PART=R
a 0 x 0 0 0 0 hln 100 PKGREF=RSP
a 0 s 0 0 0 0 hln 100 GATE=
a 0 xp 9 0 19 2 hln 100 REFDES=RSP
part 24440 VSRC 205 450 H
a 1 u 13 27 -16 40 hcn 100 DC=-57
a 1 u 0 0 0 0 hcn 100 AC=0
a 0 x 0 0 0 0 hln 100 PKGREF=VBSP
a 1 xp 9 0 -8 6 hcn 100 REFDES=VBSP
part 24476 R 595 395 h
a 0 u 13 0 11 27 hln 100 VALUE=2.2K
a 0 sp 0 0 0 10 hlb 100 PART=R
a 0 x 0 0 0 0 hln 100 PKGREF=R6S
a 0 s 0 0 0 0 hln 100 GATE=
a 0 xp 9 0 11 -2 hln 100 REFDES=R6S
part 24478 R 595 170 h
a 0 u 13 0 11 27 hln 100 VALUE=2.2K
a 0 sp 0 0 0 10 hlb 100 PART=R
a 0 x 0 0 0 0 hln 100 PKGREF=R5S
a 0 s 0 0 0 0 hln 100 GATE=
a 0 xp 9 0 11 -2 hln 100 REFDES=R5S
part 24557 C 525 285 v
a 0 u 13 0 1 49 hln 100 VALUE=680PF
a 0 sp 0 0 0 10 hlb 100 PART=C
a 0 x 0 0 0 0 hln 100 PKGREF=C34
a 0 s 0 0 0 0 hln 100 GATE=
a 0 xp 9 0 21 36 hln 100 REFDES=C34
part 24655 R 480 250 h
a 0 u 13 0 7 25 hln 100 VALUE=10K
a 0 sp 0 0 0 10 hlb 100 PART=R
a 0 x 0 0 0 0 hln 100 PKGREF=R3C
a 0 s 0 0 0 0 hln 100 GATE=
a 0 xp 9 0 7 0 hln 100 REFDES=R3C
part 24657 R 480 290 h
a 0 u 13 0 9 27 hln 100 VALUE=10K
a 0 sp 0 0 0 10 hlb 100 PART=R
a 0 x 0 0 0 0 hln 100 PKGREF=R4C
a 0 s 0 0 0 0 hln 100 GATE=
a 0 xp 9 0 11 0 hln 100 REFDES=R4C
part 0 titleblk 970 720 h
a 1 s 13 0 350 10 hcn 100 PageSize=A
a 1 x 13 0 180 60 hcn 100 PageTitle=MODIFIED MARK III AMPLIFIER
a 1 s 13 0 300 95 hrn 100 PageNO=1
a 1 s 13 0 340 95 hrn 100 PageCount=1
a 1 u 13 0 10 10 hln 100 CompanyName=Koren Audio
a 1 u 13 0 10 20 hln 100 Line1=2230 Woodwind Drive
a 1 u 13 0 10 30 hln 100 Line2=Encinitas, CA 92024
a 1 u 13 0 10 40 hln 100 Line3=619-942-2284
a 1 u 13 0 150 95 hln 100 Date=December 10,1996
part 20621 VIEWPOINT 370 180 h
a 0 s 0 0 0 0 hln 100 MARKERTYPE=VIEWPOINT
a 1 s 13 0 22 6 hcn 100 BIASVALUE=282.2600
a 0 s 0 0 0 0 hln 100 NODE=2P
part 20625 VIEWPOINT 180 195 H
a 0 s 0 0 0 0 hln 100 MARKERTYPE=VIEWPOINT
a 1 s 13 0 24 6 hcn 100 BIASVALUE=222.8000
a 0 s 0 0 0 0 hln 100 NODE=1P
part 20628 IPROBE 675 310 V
a 0 s 0 0 0 0 hln 100 MARKERTYPE=VIEWPOINT
a 1 a 0 0 10 23 hcn 100 refdes=V11
a 1 s 13 0 -10 59 hln 100 BIASVALUE=5.096E-02
part 20652 VIEWPOINT 390 285 U
a 0 s 0 0 0 0 hln 100 MARKERTYPE=VIEWPOINT
a 1 s 13 0 22 6 hcn 100 BIASVALUE=101.9400
a 0 s 0 0 0 0 hln 100 NODE=2C
part 21478 VIEWPOINT 555 430 U
a 0 s 0 0 0 0 hln 100 MARKERTYPE=VIEWPOINT
a 1 s 13 0 22 6 hcn 100 BIASVALUE=253.1100
a 0 s 0 0 0 0 hln 100 NODE=4P
part 22301 VIEWPOINT 210 140 H
a 0 s 0 0 0 0 hln 100 MARKERTYPE=VIEWPOINT
a 1 s 13 0 18 6 hcn 100 BIASVALUE=385.0100
a 0 s 0 0 0 0 hln 100 NODE=V3
part 22303 VIEWPOINT 515 485 u
a 0 s 0 0 0 0 hln 100 MARKERTYPE=VIEWPOINT
a 1 s 13 0 22 6 hcn 100 BIASVALUE=424.4500
a 0 s 0 0 0 0 hln 100 NODE=$N_0008
part 24117 VIEWPOINT 125 330 u
a 0 s 0 0 0 0 hln 100 MARKERTYPE=VIEWPOINT
a 1 s 13 0 22 6 hcn 100 BIASVALUE=2.4331
a 0 s 0 0 0 0 hln 100 NODE=$N_0002
part 25531 IPROBE 580 485 V
a 0 s 0 0 0 0 hln 100 MARKERTYPE=VIEWPOINT
a 1 a 0 0 10 23 hcn 100 refdes=V13
a 1 s 13 0 24 43 hln 100 BIASVALUE=3.645E-03
@conn
w 25057
s 270 335 330 335 25056
s 270 335 270 305 25058
s 330 335 330 340 25060
s 330 330 330 335 25062
w 25065
s 125 330 210 330 25064
s 210 335 210 330 25066
s 125 330 125 300 25068
s 210 325 210 330 25070
w 25073
a 0 sr 3 0 283 231 hln 100 LABEL=2G
s 270 235 290 235 25072
a 0 sr 3 0 283 231 hln 100 LABEL=2G
s 270 195 270 235 25074
s 265 195 270 195 25076
s 270 235 270 265 25078
w 25081
a 0 sr 3 0 214 191 hln 100 LABEL=1P
s 235 195 210 195 25080
a 0 sr 3 0 214 191 hln 100 LABEL=1P
s 210 185 210 195 25082
s 210 195 180 195 25084
w 25087
s 330 145 330 140 25086
s 210 145 210 140 25088
s 210 140 330 140 25092
w 25095
s 120 235 125 235 25094
s 125 235 125 260 25096
w 25103
a 0 sr 3 0 165 231 hln 100 LABEL=1G
s 165 235 170 235 25102
a 0 sr 3 0 165 231 hln 100 LABEL=1G
w 25105
s 210 375 210 380 25108
s 210 380 330 380 25110
s 90 380 210 380 25496
s 90 325 90 380 25500
w 25113
a 0 sr 3 0 212 275 hln 100 LABEL=1C
s 210 275 210 285 25112
a 0 sr 3 0 212 275 hln 100 LABEL=1C
w 25115
a 0 sr 3 0 310 280 hln 100 LABEL=2C
s 330 285 330 275 25120
a 0 sr 3 0 310 280 hln 100 LABEL=2C
s 330 290 330 285 25116
s 390 285 330 285 25118
s 390 195 390 285 25121
s 390 195 395 195 25123
w 25126
a 0 sr 3 0 333 191 hln 100 LABEL=2P
s 330 195 370 195 25125
a 0 sr 3 0 333 191 hln 100 LABEL=2P
s 330 185 330 195 25127
s 370 180 370 195 25133
s 370 355 370 195 25580
s 395 355 370 355 25586
w 25136
s 425 195 435 195 25135
s 435 210 435 195 25137
w 25144
a 0 sr 0 0 0 0 hln 100 LABEL=4C
s 525 315 525 290 25143
a 0 sr 3 0 530 320 hln 100 LABEL=4C
s 525 285 525 290 25147
s 520 290 525 290 25149
s 560 290 525 290 25560
w 25156
s 595 175 595 170 25157
s 595 170 595 155 25159
s 595 130 595 155 25332
s 585 155 595 155 25334
s 475 130 475 145 25340
s 475 130 595 130 25438
w 25162
a 0 sr 3 0 633 391 hln 100 LABEL=6G
s 635 395 645 395 25161
a 0 sr 3 0 633 391 hln 100 LABEL=6G
w 25172
s 685 355 685 360 25171
w 25174
a 0 sr 0 0 0 0 hln 100 LABEL=3P
s 525 125 525 155 25315
a 0 sr 3 0 529 150 hln 100 LABEL=3P
s 555 155 525 155 25336
w 25187
a 0 sr 3 0 528 405 hln 100 LABEL=4P
s 550 395 525 395 25186
a 0 sr 3 0 528 405 hln 100 LABEL=4P
s 525 435 525 430 25527
s 525 430 525 395 25526
s 555 430 525 430 25524
w 25196
a 0 sr 3 0 479 206 hln 100 LABEL=3G
s 475 175 475 195 25338
a 0 sr 3 0 479 206 hln 100 LABEL=3G
s 485 195 475 195 25197
w 25200
a 0 sr 3 0 479 367 hln 100 LABEL=4G
s 475 380 475 355 25699
a 0 sr 3 0 479 367 hln 100 LABEL=4G
s 475 355 485 355 25201
w 25212
s 685 310 685 315 25211
s 675 310 685 310 25646
w 25214
s 685 290 685 260 25508
s 600 290 685 290 25556
w 25228
a 0 sr 3 0 634 180 hln 100 LABEL=5G
s 645 170 635 170 25227
a 0 sr 3 0 634 180 hln 100 LABEL=5G
w 25230
s 580 395 595 395 25229
s 595 385 595 395 25231
s 595 420 595 395 25233
s 475 410 475 420 25426
s 595 420 475 420 25445
w 25268
s 645 470 645 405 25267
w 25270
s 645 95 645 160 25269
w 25284
a 0 sr 0 0 0 0 hln 100 LABEL=3C
s 525 250 525 235 25289
a 0 sr 3 0 529 236 hln 100 LABEL=3C
s 525 255 525 250 25285
s 520 250 525 250 25290
s 560 250 525 250 25562
w 25295
s 600 250 620 250 25558
s 620 310 635 310 25565
s 620 310 620 250 25569
w 25343
s 435 250 435 270 25401
s 420 270 435 270 25403
s 480 290 475 290 25313
s 475 270 475 290 25408
s 475 270 435 270 25406
s 475 250 475 270 25414
s 480 250 475 250 25416
s 435 290 435 270 25602
w 25448
a 0 sr 3 0 687 450 hln 100 LABEL=6P
s 685 440 745 440 25447
a 0 sr 3 0 687 450 hln 100 LABEL=6P
s 745 440 745 370 25453
w 25450
a 0 sr 3 0 688 121 hln 100 LABEL=5P
s 685 125 745 125 25449
a 0 sr 3 0 688 121 hln 100 LABEL=5P
s 745 125 745 200 25451
w 25456
s 790 215 790 235 25455
s 810 215 790 215 25457
s 810 215 810 220 25459
w 25462
s 790 265 810 265 25461
s 810 260 810 265 25463
s 810 285 810 265 25465
w 25468
s 810 335 790 335 25467
s 810 325 810 335 25469
w 25499
s 90 285 90 235 25498
w 25519
s 685 220 685 210 25518
s 685 210 685 205 25631
w 25533
s 525 475 525 485 25532
s 525 485 540 485 25536
s 515 485 525 485 25574
w 25585
s 425 355 435 355 25590
s 435 330 435 355 25600
w 25621
s 695 470 690 470 25620
w 25623
a 0 sr 3 0 770 479 hln 100 LABEL=SPKR
s 770 485 795 485 25622
a 0 sr 3 0 770 479 hln 100 LABEL=SPKR
s 770 500 770 485 25624
w 25627
s 770 510 770 525 25626
s 770 525 795 525 25628
w 25651
s 110 490 110 495 25650
w 25653
s 205 490 205 495 25652
w 25656
s 360 440 370 440 25655
s 360 460 360 440 25657
s 350 440 360 440 25659
w 25662
s 425 440 410 440 25661
s 425 460 425 440 25663
w 25666
s 360 490 360 505 25665
s 425 505 360 505 25667
s 425 505 425 490 25669
s 300 505 360 505 25671
s 300 505 300 490 25673
w 25676
s 300 450 300 440 25675
s 310 440 300 440 25677
@junction
j 270 305
+ p 15 1
+ w 25057
j 330 340
+ p 17 2
+ w 25057
j 330 330
+ p 16 1
+ w 25057
j 330 335
+ w 25057
+ w 25057
j 125 330
+ p 24117 +
+ w 25065
j 210 335
+ p 3 2
+ w 25065
j 125 300
+ p 14 1
+ w 25065
j 210 325
+ p 2 1
+ w 25065
j 210 330
+ w 25065
+ w 25065
j 290 235
+ p 5932 G
+ w 25073
j 265 195
+ p 10 2
+ w 25073
j 270 265
+ p 15 2
+ w 25073
j 270 235
+ w 25073
+ w 25073
j 235 195
+ p 10 1
+ w 25081
j 210 195
+ p 5931 P
+ w 25081
j 210 185
+ p 4 1
+ w 25081
j 180 195
+ p 20625 +
+ w 25081
j 330 145
+ p 18 2
+ w 25087
j 210 145
+ p 4 2
+ w 25087
j 125 235
+ p 1 1
+ w 25095
j 120 235
+ p 9 2
+ w 25095
j 125 260
+ p 14 2
+ w 25095
j 165 235
+ p 1 2
+ w 25103
j 170 235
+ p 5931 G
+ w 25103
j 210 375
+ p 3 1
+ w 25105
j 330 380
+ p 17 1
+ w 25105
j 210 285
+ p 2 2
+ w 25113
j 210 275
+ p 5931 C
+ w 25113
j 330 290
+ p 16 2
+ w 25115
j 330 275
+ p 5932 C
+ w 25115
j 390 285
+ p 20652 +
+ w 25115
j 330 285
+ w 25115
+ w 25115
j 395 195
+ p 22581 1
+ w 25115
j 330 195
+ p 5932 P
+ w 25126
j 330 185
+ p 18 1
+ w 25126
j 370 180
+ p 20621 +
+ w 25126
j 370 195
+ w 25126
+ w 25126
j 435 195
+ p 21745 1
+ w 25136
j 425 195
+ p 22581 2
+ w 25136
j 435 210
+ p 7656 2
+ w 25136
j 525 315
+ p 17048 C
+ w 25144
j 525 285
+ p 24557 1
+ w 25144
j 525 290
+ w 25144
+ w 25144
j 520 290
+ p 24657 2
+ w 25144
j 595 175
+ p 23 2
+ w 25156
j 595 170
+ p 24478 1
+ w 25156
j 645 395
+ p 6095 G
+ w 25162
j 635 395
+ p 24476 2
+ w 25162
j 685 355
+ p 863 1
+ w 25172
j 685 360
+ p 6095 C
+ w 25172
j 525 155
+ p 17047 P
+ w 25174
j 550 395
+ p 17400 1
+ w 25187
j 525 395
+ p 17048 P
+ w 25187
j 475 195
+ p 21745 2
+ w 25196
j 485 195
+ p 17047 G
+ w 25196
j 485 355
+ p 17048 G
+ w 25200
j 685 315
+ p 863 2
+ w 25212
j 685 290
+ s 12061
+ w 25214
j 645 170
+ p 6093 G
+ w 25228
j 635 170
+ p 24478 2
+ w 25228
j 580 395
+ p 17400 2
+ w 25230
j 595 395
+ p 24476 1
+ w 25230
j 595 385
+ p 17417 2
+ w 25230
j 645 470
+ p 968 1
+ w 25268
j 645 405
+ p 6095 G2
+ w 25268
j 645 95
+ p 966 1
+ w 25270
j 645 160
+ p 6093 G2
+ w 25270
j 525 255
+ p 24557 2
+ w 25284
j 525 235
+ p 17047 C
+ w 25284
j 525 250
+ w 25284
+ w 25284
j 520 250
+ p 24655 2
+ w 25284
j 480 290
+ p 24657 1
+ w 25343
j 595 215
+ p 23 1
+ s 1328
j 685 95
+ p 966 2
+ s 23340
j 595 345
+ p 17417 1
+ s 17418
j 595 155
+ w 25156
+ w 25156
j 585 155
+ p 17399 2
+ w 25156
j 555 155
+ p 17399 1
+ w 25174
j 475 175
+ p 20877 2
+ w 25196
j 475 145
+ p 20877 1
+ w 25156
j 435 250
+ p 7656 1
+ w 25343
j 435 270
+ w 25343
+ w 25343
j 475 270
+ w 25343
+ w 25343
j 420 270
+ s 16875
+ w 25343
j 480 250
+ p 24655 1
+ w 25343
j 475 410
+ p 20878 2
+ w 25230
j 685 440
+ p 6095 P
+ w 25448
j 685 125
+ p 6093 P
+ w 25450
j 745 200
+ p 24194 1
+ w 25450
j 745 200
+ s 23342
+ w 25450
j 745 370
+ p 24194 5
+ w 25448
j 745 370
+ s 23343
+ w 25448
j 790 235
+ p 24194 6
+ w 25456
j 810 215
+ s 12063
+ w 25456
j 810 220
+ p 23983 2
+ w 25456
j 790 265
+ p 24194 7
+ w 25462
j 810 265
+ s 24398
+ w 25462
j 810 260
+ p 23983 1
+ w 25462
j 810 285
+ p 10940 2
+ w 25462
j 790 335
+ p 24194 9
+ w 25468
j 810 335
+ s 12064
+ w 25468
j 810 325
+ p 10940 1
+ w 25468
j 745 285
+ p 24194 3
+ s 4037
j 790 285
+ p 24194 8
+ s 18596
j 745 255
+ p 24194 2
+ s 23338
j 745 315
+ p 24194 4
+ s 23339
j 745 200
+ p 24194 1
+ s 23342
j 745 370
+ p 24194 5
+ s 23343
j 90 380
+ s 44
+ w 25105
j 210 380
+ w 25105
+ w 25105
j 90 235
+ p 9 1
+ w 25499
j 90 285
+ p 185 2
+ w 25499
j 90 235
+ s 19924
+ w 25499
j 90 325
+ p 185 1
+ w 25105
j 90 235
+ s 19924
+ p 9 1
j 685 260
+ p 862 1
+ w 25214
j 685 220
+ p 862 2
+ w 25519
j 685 205
+ p 6093 C
+ w 25519
j 525 435
+ p 7655 1
+ w 25187
j 555 430
+ p 21478 +
+ w 25187
j 525 430
+ w 25187
+ w 25187
j 525 475
+ p 7655 2
+ w 25533
j 600 290
+ p 20219 2
+ w 25214
j 600 250
+ p 20220 2
+ w 25295
j 560 290
+ p 20219 1
+ w 25144
j 560 250
+ p 20220 1
+ w 25284
j 620 250
+ s 21486
+ w 25295
j 515 485
+ p 22303 +
+ w 25533
j 525 485
+ w 25533
+ w 25533
j 525 85
+ p 7654 2
+ s 7717
j 525 125
+ p 7654 1
+ w 25174
j 475 355
+ p 21746 2
+ w 25200
j 395 355
+ p 22562 1
+ w 25126
j 435 355
+ p 21746 1
+ w 25585
j 425 355
+ p 22562 2
+ w 25585
j 435 330
+ p 7657 2
+ w 25585
j 435 290
+ p 7657 1
+ w 25343
j 580 485
+ p 25531 +
+ s 7718
j 540 485
+ p 25531 -
+ w 25533
j 685 470
+ s 23341
+ p 968 2
j 795 485
+ p 24365 1
+ w 25623
j 770 500
+ p 24364 3
+ w 25623
j 770 510
+ p 24364 4
+ w 25627
j 795 525
+ p 24365 2
+ w 25627
j 795 525
+ s 24366
+ w 25627
j 730 500
+ p 24364 1
+ s 24385
j 730 510
+ p 24364 2
+ s 24386
j 795 525
+ p 24365 2
+ s 24366
j 685 210
+ s 25630
+ w 25519
j 685 360
+ s 25632
+ p 6095 C
j 685 360
+ s 25632
+ w 25172
j 635 310
+ p 20628 -
+ w 25295
j 675 310
+ p 20628 +
+ w 25212
j 110 490
+ p 19919 -
+ w 25651
j 110 495
+ s 19923
+ w 25651
j 205 490
+ p 24440 -
+ w 25653
j 205 495
+ s 24441
+ w 25653
j 110 450
+ p 19919 +
+ s 19925
j 205 450
+ p 24440 +
+ s 24442
j 370 440
+ p 22269 1
+ w 25656
j 360 440
+ s 22274
+ w 25656
j 360 460
+ p 22270 2
+ w 25656
j 350 440
+ p 22268 2
+ w 25656
j 410 440
+ p 22269 2
+ w 25662
j 425 440
+ s 22275
+ w 25662
j 425 460
+ p 22271 2
+ w 25662
j 360 490
+ p 22270 1
+ w 25666
j 425 490
+ p 22271 1
+ w 25666
j 300 505
+ s 22273
+ w 25666
j 360 505
+ w 25666
+ w 25666
j 300 490
+ p 22267 -
+ w 25666
j 300 450
+ p 22267 +
+ w 25676
j 300 440
+ s 22272
+ w 25676
j 310 440
+ p 22268 1
+ w 25676
j 210 140
+ p 22301 +
+ w 25087
j 330 140
+ s 3015
+ w 25087
j 475 380
+ p 20878 1
+ w 25200
@attributes
a 0 s 0 0 0 0 hln 100 PAGETITLE=TENA 1 AMPLIFIER
a 0 s 0 0 0 0 hln 100 PAGENO=1
a 0 s 0 0 0 0 hln 100 PAGESIZE=A
a 0 s 0 0 0 0 hln 100 PAGECOUNT=1
@text
s 5 115 95 hln 80 STPHL\LOCHERO.SCH     AUG, 29, 2001
s 5 365 490 hln 100 (minimum)
s 5 155 400 hln 120 SIMPLIFIED BIAS, POWER SUPPLIES
s 5 330 540 hln 180 FIGURE 6.  LOCAL HERO AMPLIFIER
s 5 750 385 hln 100 (4 ohm tap con-
s 5 750 395 hln 100 nected to ground.)
s 5 90 525 hln 100 (Use 2.1V with fbk; .707V no fbk.)
s 5 730 95 hln 100 NODES 5C, 6C ARE BIAS
s 5 730 105 hln 100 CURRENT TEST POINTS.
