*version 6.3 4224514571
u 13993
R? 101
C? 36
D? 13
V? 8
L? 2
U? 3
HB? 2
PM? 2
@libraries
@analysis
.AC 1 3 0
+0 20
+1 .01
+2 100MEG
.TRAN 0 0 0 1
+0 .1MS
+1 1MS
+2 0
+3 .02MS
+4 1K
+5 V(LINE_IN)  V(LINE_OUT)
+6 9
.STEP 1 0 4
+ 0 PAR1
+ 4 0
+ 5 1
+ 6 .25
.OP 0 
.PROBE 0 0 1 1 0 3
@targets
@attributes
@translators
a 0 u 13 0 0 0 hln 100 PSPICE=PSPICE
a 0 u 13 0 0 0 hln 100 PCBOARDS=PCB
a 0 u 13 0 0 0 hln 100 CADSTAR=PCB
a 0 u 13 0 0 0 hln 100 EDIF=PCB
a 0 u 13 0 0 0 hln 100 ORCAD=PCB
a 0 u 13 0 0 0 hln 100 PADS=PCB
a 0 u 13 0 0 0 hln 100 PCAD=PCB
a 0 u 13 0 0 0 hln 100 PROTEL=PCB
a 0 u 13 0 0 0 hln 100 TANGO=PCB
a 0 u 13 0 0 0 hln 100 SCICARDS=PCB
a 0 u 13 0 0 0 hln 100 POLARIS=PCB
@index
pageloc 1 0 22841 MODIFIED PAS PREAMPLIFIER
@status
n 0 96:09:27:12:30:53;846448253 e 
s 0 96:09:27:12:31:04;846448264 e 
*page 1 0 1520 970 iA
@ports
port 5557 GND_EARTH 205 530 h
port 5986 GND_EARTH 395 260 h
port 6284 BUBBLE 525 40 d
a 1 x 14 0 10 -34 hcn 100 LABEL=V+280
port 6461 BUBBLE 390 325 d
a 1 x 14 0 10 -34 hcn 100 LABEL=V+310
port 7347 BUBBLE 670 290 H
a 1 x 14 0 -14 10 hcn 100 LABEL=V+310
port 7348 BUBBLE 610 290 H
a 1 x 14 0 -14 10 hcn 100 LABEL=V+280
port 7349 GND_EARTH 670 330 h
port 7350 GND_EARTH 610 330 h
port 8346 BUBBLE 305 140 h
a 1 x 14 0 12 -2 hcn 100 LABEL=PHONO_IN
port 8359 BUBBLE 135 385 h
a 1 x 14 0 10 0 hcn 100 LABEL=LINE_IN
port 9975 BUBBLE 640 65 h
a 1 x 14 0 12 0 hcn 100 LABEL=LINE_IN
port 11050 BUBBLE 610 425 d
a 1 x 14 0 0 -31 hcn 100 LABEL=LINE_OUT
port 11219 GND_EARTH 555 330 h
port 11220 BUBBLE 555 290 h
a 1 x 14 0 12 2 hcn 100 LABEL=PH_IN
port 11288 BUBBLE 240 135 h
a 1 x 14 0 8 2 hcn 100 LABEL=PHONO_IN
port 11289 GND_EARTH 240 260 h
port 11290 BUBBLE 85 140 v
a 1 x 14 0 10 2 hcn 100 LABEL=PH_IN
@parts
part 5193 POT 135 440 v
a 0 u 13 0 -2 4 hln 100 VALUE=250K
a 0 sp 11 0 14 1 hln 100 PART=POT
a 0 x 0 0 0 0 hln 100 PKGREF=RVOL
a 0 xp 9 0 27 4 hln 100 REFDES=RVOL
part 5197 R 205 510 v
a 0 u 13 0 13 3 hln 100 VALUE=4.7k
a 0 sp 0 0 0 10 hlb 100 PART=R
a 0 x 0 0 0 0 hln 100 PKGREF=R3C
a 0 s 0 0 0 0 hln 100 GATE=
a 0 xp 9 0 23 4 hln 100 REFDES=R3C
part 5199 R 330 480 v
a 0 u 13 0 11 53 hln 100 VALUE=1.2MEG
a 0 sp 0 0 0 10 hlb 100 PART=R
a 0 x 0 0 0 0 hln 100 PKGREF=R4G
a 0 s 0 0 0 0 hln 100 GATE=
a 0 xp 9 0 23 40 hln 100 REFDES=R4G
part 5200 R 270 325 h
a 0 u 13 0 9 27 hln 100 VALUE=470k
a 0 sp 0 0 0 10 hlb 100 PART=R
a 0 x 0 0 0 0 hln 100 PKGREF=R3P
a 0 s 0 0 0 0 hln 100 GATE=
a 0 xp 9 0 11 2 hln 100 REFDES=R3P
part 5201 R 385 505 v
a 0 u 13 0 15 33 hln 100 VALUE=1k
a 0 sp 0 0 0 10 hlb 100 PART=R
a 0 x 0 0 0 0 hln 100 PKGREF=R4C
a 0 s 0 0 0 0 hln 100 GATE=
a 0 xp 9 0 15 4 hln 100 REFDES=R4C
part 5202 R 385 370 v
a 0 u 13 0 17 43 hln 100 VALUE=100k
a 0 sp 0 0 0 10 hlb 100 PART=R
a 0 x 0 0 0 0 hln 100 PKGREF=R4P
a 0 s 0 0 0 0 hln 100 GATE=
a 0 xp 9 0 17 4 hln 100 REFDES=R4P
part 5203 R 430 485 v
a 0 u 13 0 9 1 hln 100 VALUE=47k
a 0 sp 0 0 0 10 hlb 100 PART=R
a 0 x 0 0 0 0 hln 100 PKGREF=RLFB
a 0 s 0 0 0 0 hln 100 GATE=
a 0 xp 9 0 19 4 hln 100 REFDES=RLFB
part 5204 R 610 500 v
a 0 u 13 0 11 43 hln 100 VALUE=50k
a 0 sp 0 0 0 10 hlb 100 PART=R
a 0 x 0 0 0 0 hln 100 PKGREF=RLOAD
a 0 s 0 0 0 0 hln 100 GATE=
a 0 xp 9 0 23 50 hln 100 REFDES=RLOAD
part 5512 C 225 380 h
a 0 u 13 0 5 25 hln 100 VALUE=.1UF
a 0 sp 0 0 0 10 hlb 100 PART=C
a 0 x 0 0 0 0 hln 100 PKGREF=C3P
a 0 s 0 0 0 0 hln 100 GATE=
a 0 xp 9 0 5 2 hln 100 REFDES=C3P
part 5514 C 570 425 h
a 0 u 13 0 7 25 hln 100 VALUE=1UF
a 0 sp 0 0 0 10 hlb 100 PART=C
a 0 x 0 0 0 0 hln 100 PKGREF=COUT
a 0 s 0 0 0 0 hln 100 GATE=
a 0 xp 9 0 3 2 hln 100 REFDES=COUT
part 5969 R 310 140 h
a 0 u 13 0 11 25 hln 100 VALUE=10k
a 0 sp 0 0 0 10 hlb 100 PART=R
a 0 x 0 0 0 0 hln 100 PKGREF=R1GS
a 0 s 0 0 0 0 hln 100 GATE=
a 0 xp 9 0 9 2 hln 100 REFDES=R1GS
part 5970 R 305 240 v
a 0 u 13 0 11 37 hln 100 VALUE=47k
a 0 sp 0 0 0 10 hlb 100 PART=R
a 0 x 0 0 0 0 hln 100 PKGREF=R1G
a 0 s 0 0 0 0 hln 100 GATE=
a 0 xp 9 0 23 38 hln 100 REFDES=R1G
part 5972 R 395 245 v
a 0 u 13 0 13 1 hln 100 VALUE=1k
a 0 sp 0 0 0 10 hlb 100 PART=R
a 0 x 0 0 0 0 hln 100 PKGREF=R1C
a 0 s 0 0 0 0 hln 100 GATE=
a 0 xp 9 0 23 4 hln 100 REFDES=R1C
part 5974 R 455 245 V
a 0 u 13 0 13 55 hln 100 VALUE=1.2MEG
a 0 sp 0 0 0 10 hlb 100 PART=R
a 0 x 0 0 0 0 hln 100 PKGREF=R2G
a 0 s 0 0 0 0 hln 100 GATE=
a 0 xp 9 0 25 40 hln 100 REFDES=R2G
part 5975 R 395 85 v
a 0 u 13 0 15 43 hln 100 VALUE=150k
a 0 sp 0 0 0 10 hlb 100 PART=R
a 0 x 0 0 0 0 hln 100 PKGREF=R1P
a 0 s 0 0 0 0 hln 100 GATE=
a 0 xp 9 0 15 4 hln 100 REFDES=R1P
part 5976 R 530 235 V
a 0 u 13 0 9 3 hln 100 VALUE=1k
a 0 sp 0 0 0 10 hlb 100 PART=R
a 0 x 0 0 0 0 hln 100 PKGREF=R2C
a 0 s 0 0 0 0 hln 100 GATE=
a 0 xp 9 0 21 4 hln 100 REFDES=R2C
part 5977 R 530 85 v
a 0 u 13 0 17 43 hln 100 VALUE=100k
a 0 sp 0 0 0 10 hlb 100 PART=R
a 0 x 0 0 0 0 hln 100 PKGREF=R2P
a 0 s 0 0 0 0 hln 100 GATE=
a 0 xp 9 0 17 2 hln 100 REFDES=R2P
part 5981 C 455 100 d
a 0 u 13 0 29 39 hln 100 VALUE=.05UF
a 0 sp 0 0 0 10 hlb 100 PART=C
a 0 x 0 0 0 0 hln 100 PKGREF=C1P
a 0 s 0 0 0 0 hln 100 GATE=
a 0 xp 9 0 9 32 hln 100 REFDES=C1P
part 5983 C 640 95 v
a 0 u 13 0 3 37 hln 100 VALUE=.1UF
a 0 sp 0 0 0 10 hlb 100 PART=C
a 0 x 0 0 0 0 hln 100 PKGREF=C2
a 0 s 0 0 0 0 hln 100 GATE=
a 0 xp 9 0 23 32 hln 100 REFDES=C2
part 6034 R 640 220 v
a 0 u 13 0 11 57 hln 100 VALUE=4.7MEG
a 0 sp 0 0 0 10 hlb 100 PART=R
a 0 x 0 0 0 0 hln 100 PKGREF=RIA2
a 0 s 0 0 0 0 hln 100 GATE=
a 0 xp 9 0 23 44 hln 100 REFDES=RIA2
part 6035 R 640 150 v
a 0 u 13 0 11 43 hln 100 VALUE=100k
a 0 sp 0 0 0 10 hlb 100 PART=R
a 0 x 0 0 0 0 hln 100 PKGREF=RIA1
a 0 s 0 0 0 0 hln 100 GATE=
a 0 xp 9 0 21 42 hln 100 REFDES=RIA1
part 6036 C 605 215 v
a 0 u 13 0 1 7 hln 100 VALUE=2750PF
a 0 sp 0 0 0 10 hlb 100 PART=C
a 0 x 0 0 0 0 hln 100 PKGREF=CIA2
a 0 s 0 0 0 0 hln 100 GATE=
a 0 xp 9 0 21 4 hln 100 REFDES=CIA2
part 6037 C 605 145 v
a 0 u 13 0 1 9 hln 100 VALUE=818PF
a 0 sp 0 0 0 10 hlb 100 PART=C
a 0 x 0 0 0 0 hln 100 PKGREF=CIA1
a 0 s 0 0 0 0 hln 100 GATE=
a 0 xp 9 0 19 4 hln 100 REFDES=CIA1
part 7345 VSRC 670 290 H
a 1 u 0 0 0 0 hcn 100 DC=310
a 0 x 0 0 0 0 hln 100 PKGREF=V+310
a 1 xp 9 0 -10 6 hcn 100 REFDES=V+310
part 7346 VSRC 610 290 H
a 1 u 0 0 0 0 hcn 100 DC=280
a 1 u 0 0 0 0 hcn 100 AC=0
a 0 x 0 0 0 0 hln 100 PKGREF=V+280
a 1 xp 9 0 -12 6 hcn 100 REFDES=V+280
part 7281 12AX7 395 140 h
a 0 s 0 0 0 10 hlb 100 PART=12AX7
a 0 x 0 0 0 0 hln 100 PKGREF=TU1
a 1 xp 9 0 0 -4 hln 100 REFDES=TU1
part 7282 12AX7 530 140 h
a 0 s 0 0 0 10 hlb 100 PART=12AX7
a 0 x 0 0 0 0 hln 100 PKGREF=TU2
a 1 xp 9 0 -12 -6 hln 100 REFDES=TU2
part 7284 12AX7 205 420 h
a 0 s 0 0 0 10 hlb 100 PART=12AX7
a 0 x 0 0 0 0 hln 100 PKGREF=TU3
a 1 xp 9 0 -4 -2 hln 100 REFDES=TU3
part 7285 12AX7 385 420 h
a 0 s 0 0 0 10 hlb 100 PART=12AX7
a 0 x 0 0 0 0 hln 100 PKGREF=TU4
a 1 xp 9 0 -2 0 hln 100 REFDES=TU4
part 8917 R 85 485 v
a 0 u 13 0 11 43 hln 100 VALUE=750k
a 0 sp 0 0 0 10 hlb 100 PART=R
a 0 x 0 0 0 0 hln 100 PKGREF=RBAL
a 0 s 0 0 0 0 hln 100 GATE=
a 0 xp 9 0 23 42 hln 100 REFDES=RBAL
part 8927 C 565 95 h
a 0 u 13 0 17 23 hln 100 VALUE=.1UF
a 0 sp 0 0 0 10 hlb 100 PART=C
a 0 x 0 0 0 0 hln 100 PKGREF=C2P
a 0 s 0 0 0 0 hln 100 GATE=
a 0 xp 9 0 -11 22 hln 100 REFDES=C2P
part 9114 R 485 190 h
a 0 u 13 0 11 25 hln 100 VALUE=47K
a 0 sp 0 0 0 10 hlb 100 PART=R
a 0 x 0 0 0 0 hln 100 PKGREF=RPFB
a 0 s 0 0 0 0 hln 100 GATE=
a 0 xp 9 0 9 2 hln 100 REFDES=RPFB
part 9260 C 450 380 h
a 0 u 13 0 1 27 hln 100 VALUE=.22UF
a 0 sp 0 0 0 10 hlb 100 PART=C
a 0 x 0 0 0 0 hln 100 PKGREF=C4P
a 0 s 0 0 0 0 hln 100 GATE=
a 0 xp 9 0 7 2 hln 100 REFDES=C4P
part 9333 R 285 380 h
a 0 u 13 0 11 25 hln 100 VALUE=18k
a 0 sp 0 0 0 10 hlb 100 PART=R
a 0 x 0 0 0 0 hln 100 PKGREF=R4GS
a 0 s 0 0 0 0 hln 100 GATE=
a 0 xp 9 0 11 2 hln 100 REFDES=R4GS
part 9368 C 290 420 h
a 0 u 13 0 -3 25 hln 100 VALUE=4000PF
a 0 sp 0 0 0 10 hlb 100 PART=C
a 0 x 0 0 0 0 hln 100 PKGREF=C4F2
a 0 s 0 0 0 0 hln 100 GATE=
a 0 xp 9 0 5 2 hln 100 REFDES=C4F2
part 9399 C 450 480 v
a 0 u 13 0 3 39 hln 100 VALUE=33PF
a 0 sp 0 0 0 10 hlb 100 PART=C
a 0 x 0 0 0 0 hln 100 PKGREF=CLFB
a 0 s 0 0 0 0 hln 100 GATE=
a 0 xp 9 0 21 38 hln 100 REFDES=CLFB
part 10083 C 280 415 v
a 0 u 13 0 3 9 hln 100 VALUE=1500PF
a 0 sp 0 0 0 10 hlb 100 PART=C
a 0 x 0 0 0 0 hln 100 PKGREF=C4F1
a 0 s 0 0 0 0 hln 100 GATE=
a 0 xp 9 0 21 10 hln 100 REFDES=C4F1
part 10095 R 280 485 v
a 0 u 13 0 11 55 hln 100 VALUE=3.3MEG
a 0 sp 0 0 0 10 hlb 100 PART=R
a 0 x 0 0 0 0 hln 100 PKGREF=R4F
a 0 s 0 0 0 0 hln 100 GATE=
a 0 xp 9 0 23 42 hln 100 REFDES=R4F
part 10541 POT 555 425 u
a 0 u 13 0 16 24 hln 100 VALUE=750K
a 0 sp 11 0 48 5 hln 100 PART=POT
a 0 x 0 0 0 0 hln 100 PKGREF=RBASS
a 0 xp 9 0 55 24 hln 100 REFDES=RBASS
a 0 u 0 0 0 20 hln 100 SET=(1-PAR1)
part 10613 POT 555 485 H
a 0 u 13 0 26 24 hln 100 VALUE=400K
a 0 sp 11 0 -2 25 hln 100 PART=POT
a 0 x 0 0 0 0 hln 100 PKGREF=RTREB
a 0 xp 9 0 5 2 hln 100 REFDES=RTREB
a 0 u 0 0 0 20 hln 100 SET=(1-PARTX)
part 10624 C 570 485 d
a 0 u 13 0 25 7 hln 100 VALUE=.02UF
a 0 sp 0 0 0 10 hlb 100 PART=C
a 0 x 0 0 0 0 hln 100 PKGREF=CTR2
a 0 s 0 0 0 0 hln 100 GATE=
a 0 xp 9 0 9 6 hln 100 REFDES=CTR2
part 10627 R 455 510 h
a 0 u 13 0 15 25 hln 100 VALUE=1k
a 0 sp 0 0 0 10 hlb 100 PART=R
a 0 x 0 0 0 0 hln 100 PKGREF=RTR1
a 0 s 0 0 0 0 hln 100 GATE=
a 0 xp 9 0 9 2 hln 100 REFDES=RTR1
part 10643 C 490 470 V
a 0 u 13 0 5 9 hln 100 VALUE=.002UF
a 0 sp 0 0 0 10 hlb 100 PART=C
a 0 x 0 0 0 0 hln 100 PKGREF=CTR1
a 0 s 0 0 0 0 hln 100 GATE=
a 0 xp 9 0 21 8 hln 100 REFDES=CTR1
part 10700 C 490 415 v
a 0 u 13 0 3 9 hln 100 VALUE=.0075UF
a 0 sp 0 0 0 10 hlb 100 PART=C
a 0 x 0 0 0 0 hln 100 PKGREF=CBS1
a 0 s 0 0 0 0 hln 100 GATE=
a 0 xp 9 0 19 40 hln 100 REFDES=CBS1
part 10701 C 570 380 U
a 0 u 13 0 33 -1 hln 100 VALUE=.0075UF
a 0 sp 0 0 0 10 hlb 100 PART=C
a 0 x 0 0 0 0 hln 100 PKGREF=CBS2
a 0 s 0 0 0 0 hln 100 GATE=
a 0 xp 9 0 27 26 hln 100 REFDES=CBS2
part 11217 VSRC 555 290 h
a 1 u 0 0 0 0 hcn 100 DC=0
a 1 u 0 0 0 0 hcn 100 AC=1
a 1 u 0 0 0 0 hcn 100 TRAN=SIN(0  .5  1K)
a 0 x 0 0 0 0 hln 100 PKGREF=VIN
a 1 xp 9 0 -12 24 hcn 100 REFDES=VIN
part 11281 R 85 140 h
a 0 u 13 0 13 27 hln 100 VALUE=300
a 0 sp 0 0 0 10 hlb 100 PART=R
a 0 x 0 0 0 0 hln 100 PKGREF=RIV1
a 0 s 0 0 0 0 hln 100 GATE=
a 0 xp 9 0 11 2 hln 100 REFDES=RIV1
part 11282 R 135 140 h
a 0 u 13 0 3 25 hln 100 VALUE=2.2MEG
a 0 sp 0 0 0 10 hlb 100 PART=R
a 0 x 0 0 0 0 hln 100 PKGREF=RIV2
a 0 s 0 0 0 0 hln 100 GATE=
a 0 xp 9 0 13 2 hln 100 REFDES=RIV2
part 11283 R 190 140 h
a 0 u 13 0 11 25 hln 100 VALUE=186K
a 0 sp 0 0 0 10 hlb 100 PART=R
a 0 x 0 0 0 0 hln 100 PKGREF=RIV3
a 0 s 0 0 0 0 hln 100 GATE=
a 0 xp 9 0 9 2 hln 100 REFDES=RIV3
part 11284 C 140 195 h
a 0 u 13 0 -3 25 hln 100 VALUE=1447PF
a 0 sp 0 0 0 10 hlb 100 PART=C
a 0 x 0 0 0 0 hln 100 PKGREF=CIV1
a 0 s 0 0 0 0 hln 100 GATE=
a 0 xp 9 0 7 0 hln 100 REFDES=CIV1
part 11285 C 195 195 h
a 0 u 13 0 -1 25 hln 100 VALUE=403.1PF
a 0 sp 0 0 0 10 hlb 100 PART=C
a 0 x 0 0 0 0 hln 100 PKGREF=CIV2
a 0 s 0 0 0 0 hln 100 GATE=
a 0 xp 9 0 5 0 hln 100 REFDES=CIV2
part 11286 R 240 250 v
a 0 u 13 0 11 3 hln 100 VALUE=724
a 0 sp 0 0 0 10 hlb 100 PART=R
a 0 x 0 0 0 0 hln 100 PKGREF=RIV4
a 0 s 0 0 0 0 hln 100 GATE=
a 0 xp 9 0 23 4 hln 100 REFDES=RIV4
part 11287 R 85 220 v
a 0 u 13 0 15 30 hln 100 VALUE=1G
a 0 sp 0 0 0 10 hlb 100 PART=R
a 0 x 0 0 0 0 hln 100 PKGREF=RPHIN
a 0 xp 9 0 15 0 hln 100 REFDES=RPHIN
part 12029 PARAM 95 290 h
a 0 u 13 0 0 20 hln 100 NAME1=PARTX
a 0 u 13 0 50 22 hlb 100 VALUE1={(EXP(4.60517*PAR1)-1)/99}
a 0 a 0 0 0 0 hln 100 PKGREF=PM1
a 1 ap 0 0 10 -2 hcn 100 refdes=PM1
part 0 titleblk 970 720 h
a 1 s 13 0 350 10 hcn 100 PageSize=A
a 1 s 13 0 180 60 hcn 100 PageTitle=MODIFIED PAS PREAMPLIFIER
a 1 s 13 0 300 95 hrn 100 PageNO=1
a 1 s 13 0 340 95 hrn 100 PageCount=1
a 1 u 13 0 10 10 hln 100 CompanyName=Koren Audio
a 1 u 13 0 10 20 hln 100 Line1=2230 Woodwind Drive
a 1 u 13 0 10 30 hln 100 Line2=Encinitas, CA 92024
a 1 u 13 0 10 40 hln 100 Line3=619-942-2284
a 1 u 13 0 150 95 hln 100 Date=January 20,1996
part 11929 VIEWPOINT 425 190 h
a 0 s 0 0 0 0 hln 100 MARKERTYPE=VIEWPOINT
a 0 s 0 0 0 0 hln 100 NODE=1C
a 1 s 13 0 20 6 hcn 100 BIASVALUE=.8960
part 11953 VIEWPOINT 435 95 h
a 0 s 0 0 0 0 hln 100 MARKERTYPE=VIEWPOINT
a 1 s 13 0 14 8 hcn 100 BIASVALUE=146.1700
a 0 s 0 0 0 0 hln 100 NODE=1P
part 11964 VIEWPOINT 555 95 h
a 0 s 0 0 0 0 hln 100 MARKERTYPE=VIEWPOINT
a 1 s 13 0 22 8 hcn 100 BIASVALUE=172.1200
a 0 s 0 0 0 0 hln 100 NODE=2P
part 11985 VIEWPOINT 425 380 h
a 0 s 0 0 0 0 hln 100 MARKERTYPE=VIEWPOINT
a 1 s 13 0 18 8 hcn 100 BIASVALUE=189.8500
a 0 s 0 0 0 0 hln 100 NODE=4P
part 12005 VIEWPOINT 230 325 U
a 0 s 0 0 0 0 hln 100 MARKERTYPE=VIEWPOINT
a 1 s 13 0 20 6 hcn 100 BIASVALUE=163.1700
a 0 s 0 0 0 0 hln 100 NODE=3P
part 12011 VIEWPOINT 300 510 h
a 0 s 0 0 0 0 hln 100 MARKERTYPE=VIEWPOINT
a 1 s 13 0 20 6 hcn 100 BIASVALUE=1.4683
a 0 s 0 0 0 0 hln 100 NODE=3C
@conn
w 13708
s 240 250 240 260 13707
s 85 260 240 260 13709
s 85 220 85 260 13711
w 13714
s 230 140 240 140 13713
s 240 140 240 195 13717
s 240 195 240 210 13721
s 225 195 240 195 13719
s 240 135 240 140 13722
w 13725
s 190 140 185 140 13724
s 185 195 185 140 13726
s 170 195 185 195 13728
s 195 195 185 195 13730
s 185 140 175 140 13732
w 13735
s 130 195 130 140 13734
s 140 195 130 195 13736
s 135 140 130 140 13738
s 130 140 125 140 13740
w 13743
s 85 180 85 140 13742
w 13745
s 205 530 280 530 13744
s 205 510 205 530 13746
s 205 530 135 530 13748
s 280 485 280 530 13750
s 135 530 135 440 13752
s 330 530 280 530 13754
s 330 480 330 530 13756
s 385 530 330 530 13758
s 385 530 385 505 13760
s 85 530 135 530 13762
s 85 530 85 485 13764
s 610 500 610 530 13766
s 610 530 570 530 13768
s 570 515 570 530 13770
s 570 530 385 530 13772
w 13775
a 0 sr 3 0 188 460 hln 100 LABEL=3C
s 205 460 240 460 13774
a 0 sr 3 0 188 460 hln 100 LABEL=3C
s 205 470 205 460 13776
s 240 510 240 460 13778
s 430 510 300 510 13780
s 430 485 430 510 13782
s 450 510 430 510 13784
s 450 510 450 480 13786
s 455 510 450 510 13788
s 300 510 240 510 13790
a 0 sr 3 0 438 522 hln 100 LABEL=3C
w 13793
a 0 sr 3 0 191 377 hln 100 LABEL=3P
s 205 325 205 380 13792
a 0 sr 3 0 191 377 hln 100 LABEL=3P
s 225 380 205 380 13794
s 270 325 230 325 13796
s 230 325 205 325 13798
w 13801
s 390 325 385 325 13800
s 385 325 385 330 13802
s 310 325 385 325 13804
w 13807
s 285 380 280 380 13806
s 280 385 280 380 13808
s 280 380 255 380 13810
w 13813
a 0 sr 3 0 261 430 hln 100 LABEL=SF1
s 290 420 280 420 13812
a 0 sr 3 0 261 430 hln 100 LABEL=SF1
s 280 415 280 420 13814
s 280 420 280 445 13816
w 13819
a 0 sr 3 0 160 418 hln 100 LABEL=3G
s 155 420 165 420 13818
a 0 sr 3 0 160 418 hln 100 LABEL=3G
w 13821
s 135 385 135 390 13820
s 85 390 135 390 13822
s 85 445 85 390 13824
s 135 390 135 400 13826
w 13829
a 0 sr 3 0 340 418 hln 100 LABEL=4G
s 320 420 330 420 13828
s 330 380 330 420 13830
s 325 380 330 380 13832
s 330 440 330 420 13834
s 330 420 345 420 13836
a 0 sr 3 0 340 418 hln 100 LABEL=4G
w 13839
a 0 sr 3 0 387 375 hln 100 LABEL=4P
s 385 370 385 380 13838
a 0 sr 3 0 387 375 hln 100 LABEL=4P
s 450 380 425 380 13840
s 425 380 385 380 13842
w 13845
a 0 sr 3 0 369 459 hln 100 LABEL=4C
s 385 465 385 460 13844
a 0 sr 3 0 369 459 hln 100 LABEL=4C
w 13847
a 0 sr 3 0 538 390 hln 100 LABEL=BC
s 535 405 535 380 13846
s 535 380 490 380 13848
s 490 380 490 385 13850
s 570 380 535 380 13852
s 490 380 480 380 13854
a 0 sr 3 0 538 390 hln 100 LABEL=BC
w 13857
a 0 sr 3 0 431 421 hln 100 LABEL=BA-
s 450 425 430 425 13856
a 0 sr 3 0 431 421 hln 100 LABEL=BA-
s 430 445 430 425 13858
s 450 450 450 425 13860
s 515 425 490 425 13862
s 490 415 490 425 13864
s 490 440 490 425 13866
s 490 425 450 425 13868
w 13871
a 0 sr 3 0 498 483 hln 100 LABEL=TR-
s 490 485 515 485 13870
a 0 sr 3 0 498 483 hln 100 LABEL=TR-
s 490 485 490 470 13872
w 13875
s 495 510 535 510 13874
s 535 510 535 505 13876
w 13879
s 610 425 610 460 13878
s 610 380 610 425 13880
s 600 425 610 425 13882
s 600 380 610 380 13884
w 13887
a 0 sr 3 0 550 433 hln 100 LABEL=BA+
s 570 425 555 425 13886
a 0 sr 3 0 550 433 hln 100 LABEL=BA+
w 13889
a 0 sr 3 0 556 483 hln 100 LABEL=TR+
s 555 485 570 485 13888
a 0 sr 3 0 556 483 hln 100 LABEL=TR+
w 13891
s 305 260 305 240 13890
s 305 260 395 260 13892
s 395 260 395 245 13894
s 530 260 530 235 13896
s 395 260 455 260 13900
s 455 260 530 260 13904
s 455 245 455 260 13902
w 13906
a 0 sr 3 0 451 50 hln 100 LABEL=V+280
s 395 45 395 40 13905
s 525 40 530 40 13907
s 525 40 395 40 13911
a 0 sr 3 0 451 50 hln 100 LABEL=V+280
s 530 40 530 45 13912
w 13915
a 0 sr 3 0 475 136 hln 100 LABEL=2G
s 455 140 490 140 13914
a 0 sr 3 0 475 136 hln 100 LABEL=2G
s 455 205 455 140 13916
s 455 130 455 140 13918
w 13921
s 305 200 305 140 13920
s 310 140 305 140 13922
w 13925
a 0 sr 3 0 397 105 hln 100 LABEL=1P
s 395 85 395 95 13930
s 455 95 435 95 13926
s 455 100 455 95 13928
s 395 95 395 100 13934
s 435 95 395 95 13932
a 0 sr 3 0 397 105 hln 100 LABEL=1P
w 13936
a 0 sr 3 0 352 138 hln 100 LABEL=1G
s 350 140 355 140 13935
a 0 sr 3 0 352 138 hln 100 LABEL=1G
w 13938
a 0 sr 3 0 516 106 hln 100 LABEL=2P
s 530 85 530 95 13941
s 565 95 555 95 13939
s 530 95 530 100 13945
a 0 sr 3 0 516 106 hln 100 LABEL=2P
s 555 95 530 95 13943
w 13947
s 640 110 640 95 13946
s 605 95 640 95 13948
s 605 115 605 95 13950
s 595 95 605 95 13952
w 13955
a 0 sr 3 0 532 180 hln 100 LABEL=2C
s 530 195 530 190 13956
s 530 190 530 180 13960
a 0 sr 3 0 532 180 hln 100 LABEL=2C
s 525 190 530 190 13958
w 13962
a 0 sr 3 0 616 166 hln 100 LABEL=3FB
s 605 170 640 170 13961
a 0 sr 3 0 616 166 hln 100 LABEL=3FB
s 640 170 640 150 13963
s 605 170 605 145 13965
s 640 180 640 170 13967
s 605 185 605 170 13969
w 13972
a 0 sr 3 0 379 178 hln 100 LABEL=1C
s 475 190 485 190 13971
a 0 sr 3 0 379 178 hln 100 LABEL=1C
s 640 240 605 240 13979
s 605 240 475 240 13982
s 605 240 605 215 13977
s 475 240 475 190 13980
s 640 240 640 220 13983
s 395 190 425 190 13985
s 395 205 395 190 13987
s 395 190 395 180 13989
s 425 190 475 190 13991
@junction
j 240 250
+ p 11286 1
+ w 13708
j 240 260
+ s 11289
+ w 13708
j 85 220
+ p 11287 1
+ w 13708
j 230 140
+ p 11283 2
+ w 13714
j 240 210
+ p 11286 2
+ w 13714
j 225 195
+ p 11285 2
+ w 13714
j 240 195
+ w 13714
+ w 13714
j 240 135
+ s 11288
+ w 13714
j 240 140
+ w 13714
+ w 13714
j 190 140
+ p 11283 1
+ w 13725
j 170 195
+ p 11284 2
+ w 13725
j 195 195
+ p 11285 1
+ w 13725
j 185 195
+ w 13725
+ w 13725
j 175 140
+ p 11282 2
+ w 13725
j 185 140
+ w 13725
+ w 13725
j 140 195
+ p 11284 1
+ w 13735
j 135 140
+ p 11282 1
+ w 13735
j 125 140
+ p 11281 2
+ w 13735
j 130 140
+ w 13735
+ w 13735
j 85 140
+ p 11281 1
+ w 13743
j 85 180
+ p 11287 2
+ w 13743
j 85 140
+ s 11290
+ w 13743
j 205 530
+ s 5557
+ w 13745
j 205 510
+ p 5197 1
+ w 13745
j 280 485
+ p 10095 1
+ w 13745
j 135 440
+ p 5193 1
+ w 13745
j 280 530
+ w 13745
+ w 13745
j 330 480
+ p 5199 1
+ w 13745
j 330 530
+ w 13745
+ w 13745
j 385 505
+ p 5201 1
+ w 13745
j 135 530
+ w 13745
+ w 13745
j 85 485
+ p 8917 1
+ w 13745
j 610 500
+ p 5204 1
+ w 13745
j 570 515
+ p 10624 2
+ w 13745
j 385 530
+ w 13745
+ w 13745
j 570 530
+ w 13745
+ w 13745
j 205 460
+ p 7284 C
+ w 13775
j 205 470
+ p 5197 2
+ w 13775
j 300 510
+ p 12011 +
+ w 13775
j 430 485
+ p 5203 1
+ w 13775
j 450 480
+ p 9399 1
+ w 13775
j 455 510
+ p 10627 1
+ w 13775
j 430 510
+ w 13775
+ w 13775
j 450 510
+ w 13775
+ w 13775
j 205 380
+ p 7284 P
+ w 13793
j 225 380
+ p 5512 1
+ w 13793
j 270 325
+ p 5200 1
+ w 13793
j 230 325
+ p 12005 +
+ w 13793
j 390 325
+ s 6461
+ w 13801
j 385 330
+ p 5202 2
+ w 13801
j 310 325
+ p 5200 2
+ w 13801
j 385 325
+ w 13801
+ w 13801
j 285 380
+ p 9333 1
+ w 13807
j 280 385
+ p 10083 2
+ w 13807
j 255 380
+ p 5512 2
+ w 13807
j 280 380
+ w 13807
+ w 13807
j 290 420
+ p 9368 1
+ w 13813
j 280 415
+ p 10083 1
+ w 13813
j 280 445
+ p 10095 2
+ w 13813
j 280 420
+ w 13813
+ w 13813
j 155 420
+ p 5193 t
+ w 13819
j 165 420
+ p 7284 G
+ w 13819
j 135 385
+ s 8359
+ w 13821
j 85 445
+ p 8917 2
+ w 13821
j 135 400
+ p 5193 2
+ w 13821
j 135 390
+ w 13821
+ w 13821
j 320 420
+ p 9368 2
+ w 13829
j 325 380
+ p 9333 2
+ w 13829
j 330 440
+ p 5199 2
+ w 13829
j 330 420
+ w 13829
+ w 13829
j 345 420
+ p 7285 G
+ w 13829
j 385 370
+ p 5202 1
+ w 13839
j 385 380
+ p 7285 P
+ w 13839
j 450 380
+ p 9260 1
+ w 13839
j 425 380
+ p 11985 +
+ w 13839
j 385 465
+ p 5201 2
+ w 13845
j 385 460
+ p 7285 C
+ w 13845
j 535 405
+ p 10541 t
+ w 13847
j 490 385
+ p 10700 2
+ w 13847
j 570 380
+ p 10701 1
+ w 13847
j 535 380
+ w 13847
+ w 13847
j 480 380
+ p 9260 2
+ w 13847
j 490 380
+ w 13847
+ w 13847
j 430 445
+ p 5203 2
+ w 13857
j 450 450
+ p 9399 2
+ w 13857
j 515 425
+ p 10541 2
+ w 13857
j 490 415
+ p 10700 1
+ w 13857
j 490 440
+ p 10643 2
+ w 13857
j 490 425
+ w 13857
+ w 13857
j 450 425
+ w 13857
+ w 13857
j 515 485
+ p 10613 2
+ w 13871
j 490 470
+ p 10643 1
+ w 13871
j 495 510
+ p 10627 2
+ w 13875
j 535 505
+ p 10613 t
+ w 13875
j 610 460
+ p 5204 2
+ w 13879
j 610 425
+ s 11050
+ w 13879
j 600 425
+ p 5514 2
+ w 13879
j 600 380
+ p 10701 2
+ w 13879
j 570 425
+ p 5514 1
+ w 13887
j 555 425
+ p 10541 1
+ w 13887
j 555 485
+ p 10613 1
+ w 13889
j 570 485
+ p 10624 1
+ w 13889
j 305 240
+ p 5970 1
+ w 13891
j 395 260
+ s 5986
+ w 13891
j 395 245
+ p 5972 1
+ w 13891
j 530 235
+ p 5976 1
+ w 13891
j 455 245
+ p 5974 1
+ w 13891
j 455 260
+ w 13891
+ w 13891
j 395 45
+ p 5975 2
+ w 13906
j 525 40
+ s 6284
+ w 13906
j 530 45
+ p 5977 2
+ w 13906
j 490 140
+ p 7282 G
+ w 13915
j 455 205
+ p 5974 2
+ w 13915
j 455 130
+ p 5981 2
+ w 13915
j 455 140
+ w 13915
+ w 13915
j 305 200
+ p 5970 2
+ w 13921
j 305 140
+ s 8346
+ w 13921
j 310 140
+ p 5969 1
+ w 13921
j 395 85
+ p 5975 1
+ w 13925
j 435 95
+ p 11953 +
+ w 13925
j 455 100
+ p 5981 1
+ w 13925
j 395 100
+ p 7281 P
+ w 13925
j 395 95
+ w 13925
+ w 13925
j 350 140
+ p 5969 2
+ w 13936
j 355 140
+ p 7281 G
+ w 13936
j 530 85
+ p 5977 1
+ w 13938
j 565 95
+ p 8927 1
+ w 13938
j 555 95
+ p 11964 +
+ w 13938
j 530 100
+ p 7282 P
+ w 13938
j 530 95
+ w 13938
+ w 13938
j 640 95
+ p 5983 1
+ w 13947
j 640 110
+ p 6035 2
+ w 13947
j 605 115
+ p 6037 2
+ w 13947
j 595 95
+ p 8927 2
+ w 13947
j 605 95
+ w 13947
+ w 13947
j 530 195
+ p 5976 2
+ w 13955
j 530 180
+ p 7282 C
+ w 13955
j 525 190
+ p 9114 2
+ w 13955
j 530 190
+ w 13955
+ w 13955
j 640 150
+ p 6035 1
+ w 13962
j 605 145
+ p 6037 1
+ w 13962
j 640 180
+ p 6034 2
+ w 13962
j 640 170
+ w 13962
+ w 13962
j 605 185
+ p 6036 2
+ w 13962
j 605 170
+ w 13962
+ w 13962
j 485 190
+ p 9114 1
+ w 13972
j 605 215
+ p 6036 1
+ w 13972
j 605 240
+ w 13972
+ w 13972
j 640 220
+ p 6034 1
+ w 13972
j 425 190
+ p 11929 +
+ w 13972
j 395 205
+ p 5972 2
+ w 13972
j 395 180
+ p 7281 C
+ w 13972
j 395 190
+ w 13972
+ w 13972
j 475 190
+ w 13972
+ w 13972
j 640 65
+ p 5983 2
+ s 9975
j 670 290
+ p 7345 +
+ s 7347
j 670 330
+ p 7345 -
+ s 7349
j 610 290
+ p 7346 +
+ s 7348
j 610 330
+ p 7346 -
+ s 7350
j 555 330
+ p 11217 -
+ s 11219
j 555 290
+ p 11217 +
+ s 11220
j 85 140
+ p 11281 1
+ s 11290
@attributes
a 0 s 0 0 0 0 hln 100 PAGETITLE=MODIFIED PAS PREAMPLIFIER
a 0 s 0 0 0 0 hln 100 PAGENO=1
a 0 s 0 0 0 0 hln 100 PAGESIZE=A
a 0 s 0 0 0 0 hln 100 PAGECOUNT=1
@text
s 5 45 340 hln 200 LINE AMPLIFIER
s 5 80 55 hln 240 ORIGINAL PAS
s 5 350 110 hln 100 12AX7
s 5 480 110 hln 100 12AX7
s 5 565 65 hln 100 12AX7
s 5 165 390 hln 100 12AX7
s 5 345 390 hln 100 12AX7
s 5 430 350 hln 100 12AX7
s 5 615 530 hln 60 Oct. 27, 1996
s 5 560 450 hln 100 (PAS-3X)
s 5 620 505 hln 100 (total)
s 5 610 540 hln 60 WORK\PASORGTC.SCH
s 5 520 290 hln 100 INPUT   SIGNAL
s 5 65 110 hln 120 INVERSE RIAA NETWORK
s 5 110 230 hln 120 500KHz POLE
s 5 40 220 hln 100 (DUMMY)
s 5 180 85 hln 200 PHONO PREAMP
s 5 90 490 hln 100 (balance
s 5 90 500 hln 100 control)
s 5 535 465 hln 120 TREBLE
s 5 520 375 hln 120 BASS
