*PHILIPS SEMICONDUCTORS        Version: 1.0
*Filename: BF245C.PRM        Date: Oct 1992
*
.MODEL  BF245C   NJF
+             VTO = -5.0014E+000
+            BETA = 5.43157E-004
+          LAMBDA = 2.71505E-002
+              RD = 1.20869E+001
+              RS = 1.20869E+001
+              IS = 3.64346E-016
+            CGS  = 2.00000E-012
+            CGD  = 2.00000E-012
+              PB = 1.24659E+000
+              FC = 5.00000E-001
*Parameter with default value: FC

