*PHILIPS SEMICONDUCTORS        Version 1.0
*Filename: BF556A.PRM       Date: Jan 1993
*
.MODEL  BF556A   NJF
+             VTO = -2.1333E+000
+            BETA = 1.06491E-003
+          LAMBDA = 1.68673E-002
+              RD = 1.41231E+001
+              RS = 1.41231E+001
+              IS = 3.50865E-016
+            CGS  = 2.10000E-012
+            CGD  = 2.30000E-012
+              PB = 7.73895E-001
+              FC = 5.00000E-001
*Parameter with default value: FC

