* BF861B NJF model
* created using Parts release 6.2 on 07/20/95 at 14:48
* Parts is a MicroSim product.
.MODEL BF861B NJF
+ VTO=-.6391
+ BETA=13.93E-3
+ LAMBDA=47.02E-3
+ IS=376.9E-18
+ ALPHA=1.000E-6
+ VK=1
+ RD=3.577
+ RS=3.577
+ CGD=6.025E-12
+ CGS=6.025E-12
+ PB=.7072
+ KF=20.35E-18
+ AF=.7958
+ BETATCE=-.5
+ VTOTC=-2.500E-3
*$

