*
* PHILIPS SEMICONDUCTORS                                         Version:   2.0
* Filename:   BFQ270.PRM                                         Date: May 1992
*
.MODEL  BFQ270   NPN
+              IS = 1.07200E-014
+              BF = 9.00000E+001
+              NF = 1.00672E+000
+             VAF = 4.73623E+001
+             IKF = 1.26700E+002
+             ISE = 5.65800E-013
+              NE = 1.87397E+000
+              BR = 9.14300E+000
+              NR = 1.05500E+000
+             VAR = 3.00000E+000
+             IKR = 7.25000E-002
+             ISC = 1.66400E-016
+              NC = 1.03900E+000
+              RB = 4.50000E+000
+             IRB = 1.00000E-006
+             RBM = 4.50000E+000
+              RE = 7.27000E-001
+              RC = 7.85000E-001
+              EG = 1.11000E+000
+             XTI = 3.00000E+000
+             CJE = 1.14400E-011
+             VJE = 6.00000E-001
+             MJE = 3.33659E-001
+              TF = 1.51500E-011
+             XTF = 9.96625E+002
+             VTF = 2.73200E+000
+             ITF = 5.50000E+000
+             CJC = 4.15800E+000
+             VJC = 1.99665E-001
+             MJC = 1.56006E-001
+            XCJC = 1.30000E-001
+              TR = 2.10000E-009
+             VJS = 7.50000E-001
+              FC = 7.13387E-001
* Parameters with default value:
* XTB, EG, XTI, CJS, VJS and MJS.                                      
*

