*
* PHILIPS SEMICONDUCTORS                                        Version:    2.0
* Filename:    BFQ34.PRM                                        Date: July 1992
*
.MODEL  BFQ34   NPN
+              IS = 4.75483E-015
+              BF = 4.20713E+001
+              NF = 1.00201E+000
+             VAF = 5.04749E+001
+             IKF = 6.45182E+001
+             ISE = 1.64012E-011
+              NE = 2.03356E+000
+              BR = 1.00000E+001
+              NR = 1.00338E+000
+             VAR = 3.88328E+000
+             IKR = 2.00000E-001
+             ISC = 1.85324E-014
+              NC = 1.17439E+000
+              RB = 4.00000E+000
+             IRB = 1.00000E-006
+             RBM = 4.00000E+000
+              RE = 1.04474E+000
+              RC = 2.60000E+000
+              EG = 1.11000E+000
+             XTI = 3.00000E+000
+             CJE = 1.02171E-011
+             VJE = 6.00000E-001
+             MJE = 3.04926E-001
+              TF = 1.93806E-011
+             XTF = 2.80244E-001
+             VTF = 5.00000E-002
+             ITF = 5.89165E-002
+             PTF =-1.00000E+002
+             CJC = 2.90524E-012
+             VJC = 4.06322E-001
+             MJC = 2.67208E-001
+            XCJC = 2.50000E-001
+              TR = 8.59300E-009
+             VJS = 7.50000E-001
+              FC = 7.12510E-001
* Parameters with default value:
* XTB, EG, XTI, CJC, VJC and MJC.
* 

