*PHILIPS SEMICONDUCTORS        Version: 1.0
*Filename: BFT46.PRM         Date: Oct 1992
*
.MODEL  BFT46   NJF
+             VTO = -6.4188E-001
+            BETA = 1.86172E-003
+          LAMBDA = 2.16604E-002
+              RD = 9.23044E+000
+              RS = 9.23044E+000
+              IS = 1.68833E-016
+            CGS  = 2.20000E-012
+            CGD  = 2.20000E-012
+              PB = 8.27713E-001
+              FC = 5.00000E-001
*Parameter with default value: FC

