*PHILIPS SEMICONDUCTORS        Version 1.0
*Filename: BFU309.PRM       date: oct 1992
*
.MODEL  BFU309   NJF
+             VTO = -2.3973E+000
+            BETA = 3.81468E-003
+          LAMBDA = 3.80761E-002
+              RD = 2.33008E+000
+              RS = 2.33008E+000
+              IS = 3.02702E-016
+            CGS  = 7.00000E-012
+            CGD  = 6.20000E-012
+              PB = 6.83767E-001
+              FC = 5.00000E-001
*Parameter with default value: FC

