*PHILIPS SEMICONDUCTORS        Version: 1.0
*Filename: PMBF5486.PRM      Date: feb 1993
*
.MODEL  PMBF5486   NJF
+             VTO = -3.8470E+000
+            BETA = 8.32666E-004
+          LAMBDA = 1.91513E-002
+              RD = 5.71667E+000
+              RS = 5.71667E+000
+              IS = 2.03601E-016
+            CGSO = 2.50000E-012
+            CGDO = 2.38000E-012
+              PB = 1.48032E+000
+              FC = 5.00000E-001
*Parameter with default value: FC

