*SPICE model for 5082-2830
*The parameters are for a single diode. Parameters also apply 
*to the individual diodes within multiple diode configurations. 

.SUBCKT d5082_2830 1 2
DCD1    1     2      DMOD    
.MODEL  DMOD	D(IS=2E-10, CJO=4E-12, VJ=.65, BV=10, IBV=1E-5
+		EG=0.69, N=1.08, RS=6, XTI=2, M=0.5)
.ENDS

