*SPICE model for HBAT-540x
*The parameters are for a single diode (HBAT-5400). Parameters also apply 
*to the individual diodes within multiple diode configurations. 
*
.SUBCKT hbat540x 1 2
DCD1    1     2      DMOD    
.MODEL  DMOD	D(IS=1E-7, CJO=3E-12, VJ=.6, BV=40, IBV=10E-4
+		EG=0.55, N=1, RS=2.4, XTI=2, M=0.5)
.ENDS

