*SPICE model for HSMS-270x
*The parameters are for a single diode (HSMS-2700). Parameters also apply 
*to the individual diodes within multiple diode configurations. 
*
.SUBCKT hsms270x 1 2
DCD1    1     2      DMOD    
.MODEL  DMOD	D(IS=1.4E-7, CJO=6.7E-12, VJ=.6, BV=25, IBV=10E-4
+		EG=0.55, N=1.04, RS=0.65, XTI=2, M=0.5)
.ENDS

