**************************************
*      Model Generated by MODPEX     *
*Copyright(c) Symmetry Design Systems*
*         All Rights Reserved        *
*    UNPUBLISHED LICENSED SOFTWARE   *
*   Contains Proprietary Information *
*      Which is The Property of      *
*     SYMMETRY OR ITS LICENSORS      *
*Commercial Use or Resale Restricted *
*   by Symmetry License Agreement    *
**************************************
* Model generated on Apr 28, 98
* MODEL FORMAT: SPICE3
.MODEL 1sv229 d
+IS=1e-15 RS=1.17246 N=1.01249 EG=0.6
+XTI=2.99433 BV=1000 IBV=0.0001 CJO=2.83744e-11
+VJ=1.5 M=0.786549 FC=0.5 TT=1e-09
+KF=0 AF=1

