**************************************
*      Model Generated by MODPEX     *
*Copyright(c) Symmetry Design Systems*
*         All Rights Reserved        *
*    UNPUBLISHED LICENSED SOFTWARE   *
*   Contains Proprietary Information *
*      Which is The Property of      *
*     SYMMETRY OR ITS LICENSORS      *
*Commercial Use or Resale Restricted *
*   by Symmetry License Agreement    *
**************************************
* Model generated on Jun 23, 98
* MODEL FORMAT: SPICE3
.MODEL 2n2102 npn
+IS=1.1791e-10 BF=79.3546 NF=1.42901 VAF=30.134
+IKF=0.640083 ISE=7.91563e-12 NE=3.31476 BR=3.76239
+NR=1.5 VAR=3.69384 IKR=2.76346 ISC=3.24999e-13
+NC=3.96875 RB=0.1 IRB=0.1 RBM=0.1
+RE=0.00431604 RC=0.38569 XTB=0.1 XTI=1
+EG=1.05 CJE=1e-11 VJE=0.75 MJE=0.33
+TF=1e-09 XTF=1 VTF=10 ITF=0.01
+CJC=1.3035e-11 VJC=0.62509 MJC=0.23 XCJC=0.9
+FC=0.5 CJS=0 VJS=0.75 MJS=0.5
+TR=1e-07 PTF=0 KF=0 AF=1

