**************************************
*      Model Generated by MODPEX     *
*Copyright(c) Symmetry Design Systems*
*         All Rights Reserved        *
*    UNPUBLISHED LICENSED SOFTWARE   *
*   Contains Proprietary Information *
*      Which is The Property of      *
*     SYMMETRY OR ITS LICENSORS      *
*Commercial Use or Resale Restricted *
*   by Symmetry License Agreement    *
**************************************
* Model generated on May  6, 98
* MODEL FORMAT: SPICE3
.MODEL bc846awt1 npn
+IS=5.98852e-13 BF=300.903 NF=1.21356 VAF=35.5553
+IKF=0.0327193 ISE=1.66338e-11 NE=2.11661 BR=0.878863
+NR=1.28538 VAR=103.451 IKR=0.1 ISC=1.00028e-13
+NC=1.99833 RB=13.992 IRB=0.211402 RBM=10.2587
+RE=0.122702 RC=2.64218 XTB=0.469387 XTI=3.00025
+EG=1.11958 CJE=2.51321e-11 VJE=0.974329 MJE=0.771856
+TF=4.93766e-10 XTF=3.7587 VTF=2.58784 ITF=0.158491
+CJC=6.35604e-12 VJC=0.95 MJC=0.356029 XCJC=0.899692
+FC=0.1 CJS=0 VJS=0.75 MJS=0.5
+TR=1e-07 PTF=0 KF=0 AF=1

