**************************************
*      Model Generated by MODPEX     *
*Copyright(c) Symmetry Design Systems*
*         All Rights Reserved        *
*    UNPUBLISHED LICENSED SOFTWARE   *
*   Contains Proprietary Information *
*      Which is The Property of      *
*     SYMMETRY OR ITS LICENSORS      *
*Commercial Use or Resale Restricted *
*   by Symmetry License Agreement    *
**************************************
* Model generated on Apr 14, 98
* MODEL FORMAT: SPICE3
.MODEL bcx18 pnp
+IS=9.65227e-14 BF=298.722 NF=0.981783 VAF=10
+IKF=0.206045 ISE=1.73744e-14 NE=1.22618 BR=0.685852
+NR=1.0644 VAR=71.3281 IKR=1.19956 ISC=4.66149e-15
+NC=2.96765 RB=3.72293 IRB=0.1 RBM=0.1
+RE=0.00688669 RC=0.382166 XTB=0.736121 XTI=1.04767
+EG=1.05 CJE=1.9101e-10 VJE=0.99 MJE=0.422231
+TF=9.13006e-10 XTF=12.3731 VTF=1.65639 ITF=0.683922
+CJC=1.69402e-11 VJC=0.4 MJC=0.23 XCJC=0.89979
+FC=0.1 CJS=0 VJS=0.75 MJS=0.5
+TR=1e-07 PTF=0 KF=0 AF=1

