**************************************
*      Model Generated by MODPEX     *
*Copyright(c) Symmetry Design Systems*
*         All Rights Reserved        *
*    UNPUBLISHED LICENSED SOFTWARE   *
*   Contains Proprietary Information *
*      Which is The Property of      *
*     SYMMETRY OR ITS LICENSORS      *
*Commercial Use or Resale Restricted *
*   by Symmetry License Agreement    *
**************************************
* Model generated on Jun 26, 98
* MODEL FORMAT: SPICE3
.MODEL mmbd2838lt1 d
+IS=6.61604e-09 RS=1.00706 N=1.9439 EG=0.6
+XTI=0.5 BV=1000 IBV=0.0001 CJO=9.48972e-13
+VJ=1.5 M=0.2 FC=0.5 TT=1e-09
+KF=0 AF=1

