**************************************
*      Model Generated by MODPEX     *
*Copyright(c) Symmetry Design Systems*
*         All Rights Reserved        *
*    UNPUBLISHED LICENSED SOFTWARE   *
*   Contains Proprietary Information *
*      Which is The Property of      *
*     SYMMETRY OR ITS LICENSORS      *
*Commercial Use or Resale Restricted *
*   by Symmetry License Agreement    *
**************************************
* Model generated on Mar  4, 98
* MODEL FORMAT: PSpice
.MODEL Dmmbd101lt1 d
+IS=1e-07 RS=2.51244 N=1.71158 EG=0.63401
+XTI=4 BV=1000 IBV=0.0001 CJO=9.20838e-13
+VJ=1.5 M=0.2 FC=0.5 TT=0
+KF=0 AF=1

