**************************************
*      Model Generated by MODPEX     *
*Copyright(c) Symmetry Design Systems*
*         All Rights Reserved        *
*    UNPUBLISHED LICENSED SOFTWARE   *
*   Contains Proprietary Information *
*      Which is The Property of      *
*     SYMMETRY OR ITS LICENSORS      *
*Commercial Use or Resale Restricted *
*   by Symmetry License Agreement    *
**************************************
* Model generated on Apr  9, 98
* MODEL FORMAT: SPICE3
.MODEL mmbd352lt1 d
+IS=1.65959e-08 RS=3.94417 N=1.45612 EG=0.735199
+XTI=0.530968 BV=1000 IBV=0.0001 CJO=9.20067e-13
+VJ=1.5 M=0.2 FC=0.5 TT=1e-09
+KF=0 AF=1

