**************************************
*      Model Generated by MODPEX     *
*Copyright(c) Symmetry Design Systems*
*         All Rights Reserved        *
*    UNPUBLISHED LICENSED SOFTWARE   *
*   Contains Proprietary Information *
*      Which is The Property of      *
*     SYMMETRY OR ITS LICENSORS      *
*Commercial Use or Resale Restricted *
*   by Symmetry License Agreement    *
**************************************
* Model generated on Jul 22, 98
* MODEL FORMAT: SPICE3
.MODEL mmbd7000lt1 d
+IS=8.05798e-09 RS=0.399305 N=1.96798 EG=0.6
+XTI=0.5 BV=1000 IBV=0.0001 CJO=5.83133e-13
+VJ=10 M=0.2 FC=0.5 TT=1e-09
+KF=0 AF=1

