**************************************
*      Model Generated by MODPEX     *
*Copyright(c) Symmetry Design Systems*
*         All Rights Reserved        *
*    UNPUBLISHED LICENSED SOFTWARE   *
*   Contains Proprietary Information *
*      Which is The Property of      *
*     SYMMETRY OR ITS LICENSORS      *
*Commercial Use or Resale Restricted *
*   by Symmetry License Agreement    *
**************************************
* Model generated on Mar 23, 98
* MODEL FORMAT: SPICE3
.MODEL mmbfu310 njf
+VTO=-3.5412 BETA=0.00331041 LAMBDA=0 RD=0
+RS=0 IS=1e-14 CGS=1.00001e-15 CGD=2.88244e-12
+PB=6.52969 FC=0.5 KF=9.99763e-21 AF=0.201081

