**************************************
*      Model Generated by MODPEX     *
*Copyright(c) Symmetry Design Systems*
*         All Rights Reserved        *
*    UNPUBLISHED LICENSED SOFTWARE   *
*   Contains Proprietary Information *
*      Which is The Property of      *
*     SYMMETRY OR ITS LICENSORS      *
*Commercial Use or Resale Restricted *
*   by Symmetry License Agreement    *
**************************************
* Model generated on Apr 14, 98
* MODEL FORMAT: SPICE3
.MODEL mmbfj175lt1 pjf
+VTO=-4.25882 BETA=0.00388105 LAMBDA=0.00751457 RD=114.077
+RS=42.5978 IS=3.40344e-10 CGS=7.1608e-12 CGD=1.66048e-11
+PB=0.757866 FC=0.5 KF=1e-20 AF=0.2

