**************************************
*      Model Generated by MODPEX     *
*Copyright(c) Symmetry Design Systems*
*         All Rights Reserved        *
*    UNPUBLISHED LICENSED SOFTWARE   *
*   Contains Proprietary Information *
*      Which is The Property of      *
*     SYMMETRY OR ITS LICENSORS      *
*Commercial Use or Resale Restricted *
*   by Symmetry License Agreement    *
**************************************
* Model generated on Jun  2, 98
* MODEL FORMAT: SPICE3
.MODEL mmbf5484lt1 njf
+VTO=-1.44808 BETA=0.00111612 LAMBDA=0.052522 RD=92.0498
+RS=34.2404 IS=1e-14 CGS=2.34003e-11 CGD=1.9873e-12
+PB=2.68192 FC=0.5 KF=1e-20 AF=0.2

