**************************************
*      Model Generated by MODPEX     *
*Copyright(c) Symmetry Design Systems*
*         All Rights Reserved        *
*    UNPUBLISHED LICENSED SOFTWARE   *
*   Contains Proprietary Information *
*      Which is The Property of      *
*     SYMMETRY OR ITS LICENSORS      *
*Commercial Use or Resale Restricted *
*   by Symmetry License Agreement    *
**************************************
* Model generated on Jul  2, 98
* MODEL FORMAT: SPICE3
.MODEL mmbfj310 njf
+VTO=-4.16995 BETA=0.00260834 LAMBDA=0 RD=0.828616
+RS=1.65723 IS=1e-14 CGS=5.80456e-12 CGD=5.80456e-12
+PB=1.06503 FC=0.5 KF=1e-20 AF=0.2

