**************************************
*      Model Generated by MODPEX     *
*Copyright(c) Symmetry Design Systems*
*         All Rights Reserved        *
*    UNPUBLISHED LICENSED SOFTWARE   *
*   Contains Proprietary Information *
*      Which is The Property of      *
*     SYMMETRY OR ITS LICENSORS      *
*Commercial Use or Resale Restricted *
*   by Symmetry License Agreement    *
**************************************
* Model generated on Mar 31, 98
* MODEL FORMAT: SPICE3
.MODEL mmbf4393lt1 njf
+VTO=-1.36506 BETA=0.0190655 LAMBDA=0.0227922 RD=76.4299
+RS=38.7311 IS=1e-14 CGS=2.94972e-12 CGD=8.23801e-12
+PB=0.18649 FC=0.5 KF=1e-20 AF=0.2

