**************************************
*      Model Generated by MODPEX     *
*Copyright(c) Symmetry Design Systems*
*         All Rights Reserved        *
*    UNPUBLISHED LICENSED SOFTWARE   *
*   Contains Proprietary Information *
*      Which is The Property of      *
*     SYMMETRY OR ITS LICENSORS      *
*Commercial Use or Resale Restricted *
*   by Symmetry License Agreement    *
**************************************
* Model generated on May  6, 98
* MODEL FORMAT: SPICE3
.MODEL mmbt1010lt1 pnp
+IS=1.47121e-13 BF=376.631 NF=0.997006 VAF=33.2358
+IKF=0.688549 ISE=2.18047e-13 NE=1.80844 BR=1.74843
+NR=1.07122 VAR=41.8789 IKR=6.88549 ISC=2.18047e-13
+NC=2.97572 RB=18.7479 IRB=0.1 RBM=0.1
+RE=0.00035866 RC=0.445926 XTB=1.37943 XTI=2.05763
+EG=1.206 CJE=1.73788e-11 VJE=0.4 MJE=0.85
+TF=2.10778e-10 XTF=0.518592 VTF=8.51114 ITF=0.0106016
+CJC=2.39422e-11 VJC=0.4 MJC=0.364679 XCJC=0.9
+FC=0.738631 CJS=0 VJS=0.75 MJS=0.5
+TR=1e-07 PTF=0 KF=0 AF=1

