**************************************
*      Model Generated by MODPEX     *
*Copyright(c) Symmetry Design Systems*
*         All Rights Reserved        *
*    UNPUBLISHED LICENSED SOFTWARE   *
*   Contains Proprietary Information *
*      Which is The Property of      *
*     SYMMETRY OR ITS LICENSORS      *
*Commercial Use or Resale Restricted *
*   by Symmetry License Agreement    *
**************************************
* Model generated on Apr  7, 98
* MODEL FORMAT: SPICE3
.MODEL mmbt3904lt1 npn
+IS=7.11183e-14 BF=623.138 NF=1.08171 VAF=69.5734
+IKF=0.00963147 ISE=3.03185e-11 NE=2.15109 BR=0.110332
+NR=1.18876 VAR=105.037 IKR=0.0963147 ISC=1.0184e-13
+NC=1.99763 RB=5.77248 IRB=0.193107 RBM=5.77248
+RE=0.0001 RC=2.03533 XTB=0.1 XTI=2.74837
+EG=1.206 CJE=1e-13 VJE=0.976899 MJE=0.23
+TF=3.62047e-10 XTF=0.813416 VTF=7.64754 ITF=0.0112391
+CJC=3.72251e-12 VJC=0.4 MJC=0.232667 XCJC=0.8
+FC=0.21244 CJS=0 VJS=0.75 MJS=0.5
+TR=1e-07 PTF=0 KF=0 AF=1

