**************************************
*      Model Generated by MODPEX     *
*Copyright(c) Symmetry Design Systems*
*         All Rights Reserved        *
*    UNPUBLISHED LICENSED SOFTWARE   *
*   Contains Proprietary Information *
*      Which is The Property of      *
*     SYMMETRY OR ITS LICENSORS      *
*Commercial Use or Resale Restricted *
*   by Symmetry License Agreement    *
**************************************
* Model generated on May 14, 98
* MODEL FORMAT: SPICE3
.MODEL mmbth10lt1 npn
+IS=3.2868e-14 BF=75.328 NF=1.17427 VAF=10
+IKF=0.262558 ISE=1e-16 NE=1.14992 BR=0.162338
+NR=1.5 VAR=100 IKR=2.62558 ISC=1e-16
+NC=1.05387 RB=0.1 IRB=2.37339 RBM=0.1
+RE=0.0001 RC=9.5364 XTB=0.1 XTI=1
+EG=1.05 CJE=1.12827e-11 VJE=0.65 MJE=0.35
+TF=4e-10 XTF=1.5 VTF=1 ITF=1
+CJC=1.65813e-12 VJC=0.95 MJC=0.23 XCJC=0.8
+FC=0.533333 CJS=0 VJS=0.75 MJS=0.5
+TR=1e-07 PTF=0 KF=0 AF=1

