**************************************
*      Model Generated by MODPEX     *
*Copyright(c) Symmetry Design Systems*
*         All Rights Reserved        *
*    UNPUBLISHED LICENSED SOFTWARE   *
*   Contains Proprietary Information *
*      Which is The Property of      *
*     SYMMETRY OR ITS LICENSORS      *
*Commercial Use or Resale Restricted *
*   by Symmetry License Agreement    *
**************************************
* Model generated on Apr  6, 98
* MODEL FORMAT: SPICE3
.MODEL mmbt589lt1 pnp
+IS=2.98999e-14 BF=189.963 NF=0.900639 VAF=25.5754
+IKF=2.00915 ISE=6.40452e-12 NE=3.39975 BR=4.55276
+NR=0.92047 VAR=4.44253 IKR=8.59275 ISC=3.90005e-13
+NC=3.99 RB=9.45087 IRB=0.1 RBM=0.0999994
+RE=0.00101794 RC=0.253074 XTB=0.141011 XTI=1.05355
+EG=1.20601 CJE=7.83311e-12 VJE=0.652059 MJE=0.352563
+TF=2.97697e-10 XTF=1.00545 VTF=10.4621 ITF=0.00995909
+CJC=2.28715e-11 VJC=0.947981 MJC=0.23 XCJC=0.896875
+FC=0.500968 CJS=0 VJS=0.75 MJS=0.5
+TR=1e-07 PTF=0 KF=0 AF=1

