**************************************
*      Model Generated by MODPEX     *
*Copyright(c) Symmetry Design Systems*
*         All Rights Reserved        *
*    UNPUBLISHED LICENSED SOFTWARE   *
*   Contains Proprietary Information *
*      Which is The Property of      *
*     SYMMETRY OR ITS LICENSORS      *
*Commercial Use or Resale Restricted *
*   by Symmetry License Agreement    *
**************************************
* Model generated on Jun  2, 98
* MODEL FORMAT: SPICE3
.MODEL mmbv3401lt1 d
+IS=1.20183e-19 RS=0.01 N=0.804498 EG=1.3
+XTI=3.02957 BV=35 IBV=0.0001 CJO=2.42431e-12
+VJ=0.4 M=0.328674 FC=0.5 TT=1e-09
+KF=0 AF=1

