.SUBCKT mun2211t1 1 2 3 
**************************************
*      Model Generated by MODPEX     *
*Copyright(c) Symmetry Design Systems*
*         All Rights Reserved        *
*    UNPUBLISHED LICENSED SOFTWARE   *
*   Contains Proprietary Information *
*      Which is The Property of      *
*     SYMMETRY OR ITS LICENSORS      *
*Commercial Use or Resale Restricted *
*   by Symmetry License Agreement    *
**************************************
* BRT macro model
* External node 
* Node 1 -> BRT_C
* Node 2 -> BRT_B
* Node 3 -> BRT_E
QOUT 1 4 3 qmodel
R1   2 4 10000
R2   4 3 10000
.MODEL qmodel npn
+IS=2.01167e-13 BF=503.377 NF=0.85 VAF=10
+IKF=0.0915009 ISE=8.83804e-12 NE=1.33482 BR=2.92823
+NR=0.898336 VAR=80.8353 IKR=0.123407 ISC=1.00169e-13
+NC=1.98959 RB=9.68402 IRB=0.2 RBM=0.968402
+RE=0.112785 RC=1.62062 XTB=4.11585 XTI=3.59557 EG=1.05
+CJE=9.19329e-12 VJE=0.749602 MJE=0.330436 TF=1e-09
+XTF=1 VTF=10 ITF=0.01 CJC=6.14314e-12
+VJC=0.95 MJC=0.477288 XCJC=0.9 FC=0.5
.ENDS
