.SUBCKT mun2213t1 1 2 3 
**************************************
*      Model Generated by MODPEX     *
*Copyright(c) Symmetry Design Systems*
*         All Rights Reserved        *
*    UNPUBLISHED LICENSED SOFTWARE   *
*   Contains Proprietary Information *
*      Which is The Property of      *
*     SYMMETRY OR ITS LICENSORS      *
*Commercial Use or Resale Restricted *
*   by Symmetry License Agreement    *
**************************************
* BRT macro model
* External node 
* Node 1 -> BRT_C
* Node 2 -> BRT_B
* Node 3 -> BRT_E
QOUT 1 4 3 qmodel
R1   2 4 47000
R2   4 3 45000
.MODEL qmodel npn
+IS=1.09641e-14 BF=484.877 NF=0.850054 VAF=157.672
+IKF=0.100104 ISE=6.39672e-13 NE=1.36212 BR=0.469802
+NR=0.952397 VAR=110.122 IKR=0.0777143 ISC=9.97391e-14
+NC=2.01286 RB=9.94469 IRB=0.200112 RBM=9.94469
+RE=0.000100004 RC=2.94284 XTB=6.66612 XTI=3.09996 EG=1.206
+CJE=1e-13 VJE=0.747518 MJE=0.332683 TF=1e-09
+XTF=500 VTF=0.5 ITF=0.4 CJC=1.66644e-12
+VJC=0.95 MJC=0.478773 XCJC=0.9 FC=0.5
.ENDS
