.SUBCKT mun2214t1 1 2 3 
**************************************
*      Model Generated by MODPEX     *
*Copyright(c) Symmetry Design Systems*
*         All Rights Reserved        *
*    UNPUBLISHED LICENSED SOFTWARE   *
*   Contains Proprietary Information *
*      Which is The Property of      *
*     SYMMETRY OR ITS LICENSORS      *
*Commercial Use or Resale Restricted *
*   by Symmetry License Agreement    *
**************************************
* BRT macro model
* External node 
* Node 1 -> BRT_C
* Node 2 -> BRT_B
* Node 3 -> BRT_E
QOUT 1 4 3 qmodel
R1   2 4 10000
R2   4 3 47000
.MODEL qmodel npn
+IS=3.66399e-14 BF=254.939 NF=0.85 VAF=95.7753
+IKF=0.357721 ISE=1.49055e-12 NE=1.49693 BR=1.02623
+NR=0.896586 VAR=97.8174 IKR=0.0997037 ISC=9.9998e-14
+NC=1.99917 RB=9.97674 IRB=0.19916 RBM=0.997157
+RE=0.0981867 RC=0.9896 XTB=0.374921 XTI=2.99928 EG=1.11358
+CJE=5.36058e-12 VJE=0.747939 MJE=0.332252 TF=1e-09
+XTF=1 VTF=10 ITF=0.01 CJC=4.78888e-12
+VJC=0.688331 MJC=0.23 XCJC=0.9 FC=0.5
.ENDS
