.SUBCKT mun2212t1 1 2 3 
**************************************
*      Model Generated by MODPEX     *
*Copyright(c) Symmetry Design Systems*
*         All Rights Reserved        *
*    UNPUBLISHED LICENSED SOFTWARE   *
*   Contains Proprietary Information *
*      Which is The Property of      *
*     SYMMETRY OR ITS LICENSORS      *
*Commercial Use or Resale Restricted *
*   by Symmetry License Agreement    *
**************************************
* BRT macro model
* External node 
* Node 1 -> BRT_C
* Node 2 -> BRT_B
* Node 3 -> BRT_E
QOUT 1 4 3 qmodel
R1   2 4 22000
R2   4 3 22000
.MODEL qmodel npn
+IS=8.35009e-15 BF=320.598 NF=0.85 VAF=81.3391
+IKF=0.470407 ISE=8.73494e-13 NE=2.28791 BR=2.58274
+NR=0.90123 VAR=67.0486 IKR=0.0880718 ISC=9.98221e-14
+NC=1.99249 RB=9.95062 IRB=0.184263 RBM=9.95062
+RE=0.344931 RC=2.08459 XTB=4.742 XTI=2.66746 EG=1.05
+CJE=3.05462e-13 VJE=0.746032 MJE=0.334339 TF=2e-09
+XTF=350 VTF=0.16 ITF=1 CJC=3.18971e-12
+VJC=0.95 MJC=0.23 XCJC=0.9 FC=0.5
.ENDS
