.SUBCKT mun5111t1 1 2 3 
**************************************
*      Model Generated by MODPEX     *
*Copyright(c) Symmetry Design Systems*
*         All Rights Reserved        *
*    UNPUBLISHED LICENSED SOFTWARE   *
*   Contains Proprietary Information *
*      Which is The Property of      *
*     SYMMETRY OR ITS LICENSORS      *
*Commercial Use or Resale Restricted *
*   by Symmetry License Agreement    *
**************************************
* BRT macro model
* External node 
* Node 1 -> BRT_C
* Node 2 -> BRT_B
* Node 3 -> BRT_E
QOUT 1 4 3 qmodel
R1   2 4 10000
R2   4 3 10000
.MODEL qmodel pnp
+IS=8.21265e-14 BF=232.819 NF=0.85 VAF=95.1876
+IKF=0.115394 ISE=2.59275e-12 NE=1.35437 BR=0.981237
+NR=0.896623 VAR=100.676 IKR=0.099968 ISC=1e-13
+NC=1.99999 RB=9.99618 IRB=0.2 RBM=0.999618
+RE=0.0963173 RC=1.10266 XTB=0.49613 XTI=2.9993 EG=1.08297
+CJE=5.27059e-12 VJE=0.74778 MJE=0.332426 TF=1e-09
+XTF=1 VTF=10 ITF=0.01 CJC=3.64127e-12
+VJC=0.95 MJC=0.23 XCJC=0.9 FC=0.5
.ENDS
