.SUBCKT mun5212t1 1 2 3 
**************************************
*      Model Generated by MODPEX     *
*Copyright(c) Symmetry Design Systems*
*         All Rights Reserved        *
*    UNPUBLISHED LICENSED SOFTWARE   *
*   Contains Proprietary Information *
*      Which is The Property of      *
*     SYMMETRY OR ITS LICENSORS      *
*Commercial Use or Resale Restricted *
*   by Symmetry License Agreement    *
**************************************
* BRT macro model
* External node 
* Node 1 -> BRT_C
* Node 2 -> BRT_B
* Node 3 -> BRT_E
QOUT 1 4 3 qmodel
R1   2 4 22000
R2   4 3 22000
.MODEL qmodel npn
+IS=9.25682e-14 BF=479.491 NF=1.28137 VAF=27.3699
+IKF=0.206472 ISE=9.0144e-13 NE=2.00402 BR=1.08294
+NR=1.36872 VAR=103.636 IKR=0.0993729 ISC=9.99928e-14
+NC=2.00058 RB=9.98173 IRB=0.2 RBM=0.998173
+RE=0.113633 RC=1.57343 XTB=0.461494 XTI=3.00087 EG=1.14381
+CJE=4.96938e-12 VJE=0.747482 MJE=0.332755 TF=1e-09
+XTF=1 VTF=10 ITF=0.01 CJC=4.50951e-12
+VJC=0.664496 MJC=0.293517 XCJC=0.9 FC=0.5
.ENDS
