.SUBCKT mun5214t1 1 2 3 
**************************************
*      Model Generated by MODPEX     *
*Copyright(c) Symmetry Design Systems*
*         All Rights Reserved        *
*    UNPUBLISHED LICENSED SOFTWARE   *
*   Contains Proprietary Information *
*      Which is The Property of      *
*     SYMMETRY OR ITS LICENSORS      *
*Commercial Use or Resale Restricted *
*   by Symmetry License Agreement    *
**************************************
* BRT macro model
* External node 
* Node 1 -> BRT_C
* Node 2 -> BRT_B
* Node 3 -> BRT_E
QOUT 1 4 3 qmodel
R1   2 4 10000
R2   4 3 47000
.MODEL qmodel npn
+IS=8.16043e-14 BF=162.891 NF=0.894525 VAF=34.5218
+IKF=0.120022 ISE=9.25019e-13 NE=1.8984 BR=6.62443
+NR=0.909239 VAR=99.0155 IKR=0.158468 ISC=9.96844e-14
+NC=2.01665 RB=10.157 IRB=0.2 RBM=10
+RE=1.05171 RC=0.00107998 XTB=3 XTI=2.50885 EG=1.05
+CJE=5.78439e-12 VJE=0.748056 MJE=0.332124 TF=1e-09
+XTF=1 VTF=10 ITF=0.01 CJC=4.63244e-12
+VJC=0.95 MJC=0.23 XCJC=0.9 FC=0.5
.ENDS
