.SUBCKT mun5211t1 1 2 3 
**************************************
*      Model Generated by MODPEX     *
*Copyright(c) Symmetry Design Systems*
*         All Rights Reserved        *
*    UNPUBLISHED LICENSED SOFTWARE   *
*   Contains Proprietary Information *
*      Which is The Property of      *
*     SYMMETRY OR ITS LICENSORS      *
*Commercial Use or Resale Restricted *
*   by Symmetry License Agreement    *
**************************************
* BRT macro model
* External node 
* Node 1 -> BRT_C
* Node 2 -> BRT_B
* Node 3 -> BRT_E
QOUT 1 4 3 qmodel
R1   2 4 10000
R2   4 3 10000
.MODEL qmodel npn
+IS=6.88e-15 BF=315.95 NF=0.942048 VAF=13.7355
+IKF=0.442191 ISE=7.38494e-13 NE=1.54602 BR=3.61799
+NR=1.01473 VAR=101.76 IKR=0.511049 ISC=1.1116e-13
+NC=1.9895 RB=9.95151 IRB=0.2 RBM=0.995203
+RE=0.0001 RC=3.39301 XTB=3.49591 XTI=2.64436 EG=1.05
+CJE=6.44434e-12 VJE=0.748341 MJE=0.331813 TF=1e-09
+XTF=1 VTF=10 ITF=0.1 CJC=4.20132e-12
+VJC=0.95 MJC=0.372002 XCJC=0.9 FC=0.5
.ENDS
