.SUBCKT mun5113t1 1 2 3 
**************************************
*      Model Generated by MODPEX     *
*Copyright(c) Symmetry Design Systems*
*         All Rights Reserved        *
*    UNPUBLISHED LICENSED SOFTWARE   *
*   Contains Proprietary Information *
*      Which is The Property of      *
*     SYMMETRY OR ITS LICENSORS      *
*Commercial Use or Resale Restricted *
*   by Symmetry License Agreement    *
**************************************
* BRT macro model
* External node 
* Node 1 -> BRT_C
* Node 2 -> BRT_B
* Node 3 -> BRT_E
QOUT 1 4 3 qmodel
R1   2 4 47000
R2   4 3 47000
.MODEL qmodel pnp
+IS=7.25784e-14 BF=210.397 NF=1.25109 VAF=10
+IKF=0.106023 ISE=5.9242e-13 NE=1.87351 BR=2.53397
+NR=1.31523 VAR=63.2989 IKR=0.0907684 ISC=1.00165e-13
+NC=1.99207 RB=10.1514 IRB=0.2 RBM=10
+RE=0.202038 RC=4.29775 XTB=0.529634 XTI=3.02215 EG=1.206
+CJE=9.66401e-12 VJE=0.700061 MJE=0.38572 TF=1e-09
+XTF=1 VTF=10 ITF=0.01 CJC=2.68082e-12
+VJC=0.4 MJC=0.500192 XCJC=0.9 FC=0.5
.ENDS
