.SUBCKT mun5213t1 1 2 3 
**************************************
*      Model Generated by MODPEX     *
*Copyright(c) Symmetry Design Systems*
*         All Rights Reserved        *
*    UNPUBLISHED LICENSED SOFTWARE   *
*   Contains Proprietary Information *
*      Which is The Property of      *
*     SYMMETRY OR ITS LICENSORS      *
*Commercial Use or Resale Restricted *
*   by Symmetry License Agreement    *
**************************************
* BRT macro model
* External node 
* Node 1 -> BRT_C
* Node 2 -> BRT_B
* Node 3 -> BRT_E
QOUT 1 4 3 qmodel
R1   2 4 47000
R2   4 3 47000
.MODEL qmodel npn
+IS=1.34841e-14 BF=380.835 NF=0.85 VAF=288.792
+IKF=0.120599 ISE=6.78053e-12 NE=1.60377 BR=4.16566
+NR=0.794455 VAR=105.58 IKR=0.00494523 ISC=9.9128e-14
+NC=1.99857 RB=9.35749 IRB=0.2 RBM=9.35749
+RE=0.000102655 RC=1.63286 XTB=2.82136 XTI=3.99998 EG=1.20508
+CJE=5.28202e-12 VJE=0.752363 MJE=0.327511 TF=1e-09
+XTF=1 VTF=10 ITF=0.01 CJC=1.92341e-12
+VJC=0.95 MJC=0.503284 XCJC=0.9 FC=0.5
.ENDS
