.SUBCKT mun5114t1 1 2 3 
**************************************
*      Model Generated by MODPEX     *
*Copyright(c) Symmetry Design Systems*
*         All Rights Reserved        *
*    UNPUBLISHED LICENSED SOFTWARE   *
*   Contains Proprietary Information *
*      Which is The Property of      *
*     SYMMETRY OR ITS LICENSORS      *
*Commercial Use or Resale Restricted *
*   by Symmetry License Agreement    *
**************************************
* BRT macro model
* External node 
* Node 1 -> BRT_C
* Node 2 -> BRT_B
* Node 3 -> BRT_E
QOUT 1 4 3 qmodel
R1   2 4 10000
R2   4 3 47000
.MODEL qmodel pnp
+IS=8.68249e-14 BF=274.736 NF=0.85 VAF=10
+IKF=0.0276657 ISE=1.27069e-12 NE=1.23123 BR=1.99086
+NR=0.902019 VAR=99.4017 IKR=0.449769 ISC=1.00031e-13
+NC=1.99875 RB=10.2469 IRB=0.2 RBM=10
+RE=0.0001 RC=2.66045 XTB=4.58636 XTI=3.0825 EG=1.206
+CJE=6.48872e-12 VJE=0.74824 MJE=0.331926 TF=1e-09
+XTF=40 VTF=0.5 ITF=0.1 CJC=4.70603e-12
+VJC=0.48538 MJC=0.23 XCJC=0.9 FC=0.5
.ENDS
