.SUBCKT mun5112t1 1 2 3 
**************************************
*      Model Generated by MODPEX     *
*Copyright(c) Symmetry Design Systems*
*         All Rights Reserved        *
*    UNPUBLISHED LICENSED SOFTWARE   *
*   Contains Proprietary Information *
*      Which is The Property of      *
*     SYMMETRY OR ITS LICENSORS      *
*Commercial Use or Resale Restricted *
*   by Symmetry License Agreement    *
**************************************
* BRT macro model
* External node 
* Node 1 -> BRT_C
* Node 2 -> BRT_B
* Node 3 -> BRT_E
QOUT 1 4 3 qmodel
R1   2 4 22000
R2   4 3 27500
.MODEL qmodel pnp
+IS=7.52412e-13 BF=294.068 NF=0.940182 VAF=10
+IKF=1.23151 ISE=3.93592e-13 NE=1.17139 BR=3.25063
+NR=0.971641 VAR=1.96114 IKR=0.070407 ISC=9.94363e-14
+NC=2.01979 RB=9.59939 IRB=0.199781 RBM=9.59939
+RE=4.10603 RC=0.001 XTB=3.06104 XTI=2.78463 EG=1.05
+CJE=1.90007e-12 VJE=0.670286 MJE=0.41697 TF=2e-09
+XTF=400 VTF=0.5 ITF=0.1 CJC=3.90479e-12
+VJC=0.82912 MJC=0.23 XCJC=0.9 FC=0.5
.ENDS
