*****************************************************************
* SIEMENS SIPMOS Power Transistors                              *
* Level-3 SPICE Library for S-FET Version 3.2          10/98    *
*                                                               *
* Models provided by SIEMENS are not warranted by SIEMENS as    *
* fully representing all of the specifications and operating    *
* characteristics of the semiconductor product to which the     *
* model relates. The model describe the characteristics of a    * 
* typical device.                                               * 
* In all cases, the current data sheet information for a given  *
* device is the final design guideline and the only actual      *
* performance specification.                                    *
* Altough models can be a useful tool in evaluating device      *
* performance, they cannot model exact device performance under *
* all conditions, nor are they intended to replace bread-       *
* boarding for final verification. SIEMENS therefore does not   *
* assume any liability arising from their use.                  *
* SIEMENS reserves the right to change models without prior     * 
* notice.                                                       *
*                                                               *
* This library contains models of the following SIEMENS         *
* S-FET Transistors:                                            *
*                                                               *
*  BUZ100s   / BUZ100sl                                         *
*  BUZ101s   / BUZ101sl                                         *
*  BUZ102s   / BUZ102sl                                         *
*  BUZ103s   / BUZ103sl                                         *
*  BUZ104s   / BUZ104sl                                         *
*  BUZ110s   / BUZ110sl                                         *
*  BUZ111s   / BUZ111sl                                         *
*  SPD/U31N05/ SPD/U28N05L                                      *
*  SPD/U14N05/ SPD/U13N05L                                      * 
*****************************************************************
*
.SUBCKT BUZ100S_L3  GATE DRAIN SOURCE TJ Tcase Tamb
.PARAM Cgs=1.37N Cox=3.12N Kgd=1.67N VSW=-1.61 cjo_ds=1.92n
.PARAM W=2.294 L=1.025U VTH=3.68 alpha=0.5 RG=2.3 RD=6.42M RS=.6M LG=7N LD=5N LS=3N
.PARAM nsub=1.03E17 tox=81E-9 uo=575 vmax=1.25E5 bv =62 trr=80n ISE=1.15n  
.MODEL  D_BODY    D (BV= {bv},CJO ={cjo_ds},TT ={trr},IS ={ISE})
.MODEL	NMOS_L3	NMOS (LEVEL=3,W={W},L={L},VTO={VTH},nsub={nsub},tox={tox},vmax={vmax},u0={uo})
.PARAM  selfh={1} Rth1={0.0053}  Rth2={0.026}  Rth3={0.056}  Rth4={0.097}  Rth5={0.118}  Rth6={0.051}
.PARAM  CZth1={5.9E-4} CZth2={5.6E-4} CZth3={1.15E-3} CZth4={3.13E-3} CZth5={0.012} CZth6={0.1} 

E_ABM26         Vgox 0 VALUE { V(Vdg)-V(Vdepl)     }
S_S2         gcox cbias 0 vgcox S2
RS_S2        0 vgcox 1G
        .MODEL S2 VSWITCH Roff=1e6 Ron=100 Voff=-0.01 Von=0
R_R13         0 cbias  1E12  
S_S1         gi gcox 0 vgcox S1
RS_S1        0 vgcox 1G
        .MODEL S1 VSWITCH Roff=1e6 Ron=100 Voff=0 Von=-0.01
E_E10         cbias 0 VALUE { V(gi) }
L_LG         GATE 8  {LG}  
R_RG         8 gi  {RG}  
E_ABM11         Vdepl 0 VALUE { if (V(Vdg) >0.0, V(Vdg)   
+ +2*({Kgd}/{Cox})**2*(1-sqrt(1+(V(Vdg)/({Kgd}/{Cox})**2))),0)   }
E_E12         vgcox 0 VALUE { -V(DCB)+V(Vdepl)+{VSW} }
V_VDR         Vdrain dr DC 0V AC 0V 
E_ABM27       Vdg 0 VALUE { V(RDM)-V(gi)+{alpha}*(V(RDM)-V(DSB))**2    }
E_E14         RDP RKP VALUE { {alpha}*(V(RDM)-V(DSB))**2+I(V_VID)*
+ {RD}/(300/(V(TJ)+273))**1.5 }
R_RKLEIN         RDM RKP  .01m  
R_RDUMMY         RDM RDP  1E12  
G_G7         RDM gi VALUE { if (time>50n, DDT({Cox}*V(Vgox, 0)),0) }
L_LS         7  SOURCE  {LS}  
E_EVTH         vg gi VALUE { (V(TJ, 0)-{TEMP})*0.0025 }
R_Rth2         1 2  {Rth2}  
R_Rth1         TJ 1  {Rth1}  
C_CZth2         Tamb 1  {CZth2}  
C_CZth1         TJ Tamb  {CZth1}  
R_Rth3         2 3  {Rth3}  
R_Rth4         3 4  {Rth4}  
R_Rth5         4 5  {Rth5}  
R_Rth6         5 Tcase  {Rth6}  
C_CZth3         2 Tamb  {CZth3}  
C_CZth4         Tamb 3  {CZth4}  
C_CZth5         Tamb 4  {CZth5}  
C_CZth6         Tamb 5  {CZth6}  
L_LD         DCB DRAIN  {LD}  
V_VID         DCB RDP DC 0V AC 0V 
G_G8         0 TJ VALUE { if (time>50n, V(DCB, DSB)*I(L_LS)*{selfh},0) }
C_C8         DSB gcox  {Cox}  
R_RLKG         DSB gi  1E12  
C_CGS1         DSB gi  {Cgs}  
R_R8         DSB vg  1E12  
R_RS         7 DSB  {Rs}  
E_E13         Vdrain DSB RDM DSB 1
G_ABMII2         RDM DSB VALUE { I(V_VDR)*((TEMP+273)/(V(TJ)+273))**1.5    }
M_X4         dr vg DSB DSB NMOS_L3
D_DBODY1         DSB DCB D_BODY
.ENDS    BUZ100S_L3

*
*
.SUBCKT BUZ100SL_L3  GATE DRAIN SOURCE TJ Tcase Tamb
.PARAM   Cgs=1.83N Cox=5.0N Kgd=1.55N VSW=-1.61 cjo_ds=1.81n
.PARAM   W=2.404 L=1.025U VTH=2.29 alpha=0.5 RG=2.3 RD=7.4M RS=.6M LG=7N LD=5N LS=3N
.PARAM   nsub=9.7E16 tox=55E-9 uo=515 vmax=1.25E5 bv =62 trr=80n ISE=1.15n  
.MODEL  D_BODY    D (BV= {bv},CJO ={cjo_ds},TT ={trr},IS ={ISE})
.MODEL	NMOS_L3	NMOS (LEVEL=3,W={W},L={L},VTO={VTH},nsub={nsub},tox={tox},vmax={vmax},u0={uo})
.PARAM  selfh={1} Rth1={0.0053}  Rth2={0.026}  Rth3={0.056}  Rth4={0.097}  Rth5={0.118}  Rth6={0.051}
.PARAM  CZth1={5.9E-4} CZth2={5.6E-4} CZth3={1.15E-3} CZth4={3.13E-3} CZth5={0.012} CZth6={0.1} 

E_ABM26         Vgox 0 VALUE { V(Vdg)-V(Vdepl)     }
S_S2         gcox cbias 0 vgcox S2
RS_S2        0 vgcox 1G
        .MODEL S2 VSWITCH Roff=1e6 Ron=100 Voff=-0.01 Von=0
R_R13         0 cbias  1E12  
S_S1         gi gcox 0 vgcox S1
RS_S1        0 vgcox 1G
        .MODEL S1 VSWITCH Roff=1e6 Ron=100 Voff=0 Von=-0.01
E_E10         cbias 0 VALUE { V(gi) }
L_LG         GATE 8  {LG}  
R_RG         8 gi  {RG}  
E_ABM11         Vdepl 0 VALUE { if (V(Vdg) >0.0, V(Vdg)   
+ +2*({Kgd}/{Cox})**2*(1-sqrt(1+(V(Vdg)/({Kgd}/{Cox})**2))),0)   }
E_E12         vgcox 0 VALUE { -V(DCB)+V(Vdepl)+{VSW} }
V_VDR         Vdrain dr DC 0V AC 0V 
E_ABM27       Vdg 0 VALUE { V(RDM)-V(gi)+{alpha}*(V(RDM)-V(DSB))**2    }
E_E14         RDP RKP VALUE { {alpha}*(V(RDM)-V(DSB))**2+I(V_VID)*
+ {RD}/(300/(V(TJ)+273))**1.5 }
R_RKLEIN         RDM RKP  .01m  
R_RDUMMY         RDM RDP  1E12  
G_G7         RDM gi VALUE { if (time>50n, DDT({Cox}*V(Vgox, 0)),0) }
L_LS         7  SOURCE  {LS}  
E_EVTH         vg gi VALUE { (V(TJ, 0)-{TEMP})*0.0025 }
R_Rth2         1 2  {Rth2}  
R_Rth1         TJ 1  {Rth1}  
C_CZth2         Tamb 1  {CZth2}  
C_CZth1         TJ Tamb  {CZth1}  
R_Rth3         2 3  {Rth3}  
R_Rth4         3 4  {Rth4}  
R_Rth5         4 5  {Rth5}  
R_Rth6         5 Tcase  {Rth6}  
C_CZth3         2 Tamb  {CZth3}  
C_CZth4         Tamb 3  {CZth4}  
C_CZth5         Tamb 4  {CZth5}  
C_CZth6         Tamb 5  {CZth6}  
L_LD         DCB DRAIN  {LD}  
V_VID         DCB RDP DC 0V AC 0V 
G_G8         0 TJ VALUE { if (time>50n, V(DCB, DSB)*I(L_LS)*{selfh},0) }
C_C8         DSB gcox  {Cox}  
R_RLKG         DSB gi  1E12  
C_CGS1         DSB gi  {Cgs}  
R_R8         DSB vg  1E12  
R_RS         7 DSB  {Rs}  
E_E13         Vdrain DSB RDM DSB 1
G_ABMII2         RDM DSB VALUE { I(V_VDR)*((TEMP+273)/(V(TJ)+273))**1.5    }
M_X4         dr vg DSB DSB NMOS_L3
D_DBODY1         DSB DCB D_BODY
.ENDS    BUZ100SL_L3
*
.SUBCKT BUZ101S_L3  GATE DRAIN SOURCE TJ Tcase Tamb
.PARAM   Cgs=0.473N Cox=0.901N Kgd=0.514N VSW=-1.61 cjo_ds=0.436n
.PARAM   W=0.558 L=1.025U VTH=3.68 alpha=0.5 RG=1.6 RD=27.0M RS=1.0M LG=7N LD=5N LS=5N
.PARAM   nsub=1.03E17 tox=81E-9 uo=575 vmax=1.25E5 bv=62 trr=55n ISE=.25n  
.MODEL  D_BODY    D (BV= {bv},CJO ={cjo_ds},TT ={trr},IS ={ISE})
.MODEL	NMOS_L3	NMOS (LEVEL=3,W={W},L={L},VTO={VTH},nsub={nsub},tox={tox},vmax={vmax},u0={uo})
.PARAM  selfh={1} Rth1={0.021}  Rth2={0.1}  Rth3={0.2}  Rth4={0.33}  Rth5={0.316}  Rth6={0.104}
.PARAM  CZth1={1.5E-4} CZth2={1.4E-4} CZth3={3.0E-4} CZth4={8.91E-4} CZth5={4.0E-3} CZth6={0.045} 

E_ABM26         Vgox 0 VALUE { V(Vdg)-V(Vdepl)     }
S_S2         gcox cbias 0 vgcox S2
RS_S2        0 vgcox 1G
        .MODEL S2 VSWITCH Roff=1e6 Ron=100 Voff=-0.01 Von=0
R_R13         0 cbias  1E12  
S_S1         gi gcox 0 vgcox S1
RS_S1        0 vgcox 1G
        .MODEL S1 VSWITCH Roff=1e6 Ron=100 Voff=0 Von=-0.01
E_E10         cbias 0 VALUE { V(gi) }
L_LG         GATE 8  {LG}  
R_RG         8 gi  {RG}  
E_ABM11         Vdepl 0 VALUE { if (V(Vdg) >0.0, V(Vdg)   
+ +2*({Kgd}/{Cox})**2*(1-sqrt(1+(V(Vdg)/({Kgd}/{Cox})**2))),0)   }
E_E12         vgcox 0 VALUE { -V(DCB)+V(Vdepl)+{VSW} }
V_VDR         Vdrain dr DC 0V AC 0V 
E_ABM27       Vdg 0 VALUE { V(RDM)-V(gi)+{alpha}*(V(RDM)-V(DSB))**2    }
E_E14         RDP RKP VALUE { {alpha}*(V(RDM)-V(DSB))**2+I(V_VID)*
+ {RD}/(300/(V(TJ)+273))**1.5 }
R_RKLEIN         RDM RKP  .01m  
R_RDUMMY         RDM RDP  1E12  
G_G7         RDM gi VALUE { if (time>50n, DDT({Cox}*V(Vgox, 0)),0) }
L_LS         7  SOURCE  {LS}  
E_EVTH         vg gi VALUE { (V(TJ, 0)-{TEMP})*0.0025 }
R_Rth2         1 2  {Rth2}  
R_Rth1         TJ 1  {Rth1}  
C_CZth2         Tamb 1  {CZth2}  
C_CZth1         TJ Tamb  {CZth1}  
R_Rth3         2 3  {Rth3}  
R_Rth4         3 4  {Rth4}  
R_Rth5         4 5  {Rth5}  
R_Rth6         5 Tcase  {Rth6}  
C_CZth3         2 Tamb  {CZth3}  
C_CZth4         Tamb 3  {CZth4}  
C_CZth5         Tamb 4  {CZth5}  
C_CZth6         Tamb 5  {CZth6}  
L_LD         DCB DRAIN  {LD}  
V_VID         DCB RDP DC 0V AC 0V 
G_G8         0 TJ VALUE { if (time>50n, V(DCB, DSB)*I(L_LS)*{selfh},0) }
C_C8         DSB gcox  {Cox}  
R_RLKG         DSB gi  1E12  
C_CGS1         DSB gi  {Cgs}  
R_R8         DSB vg  1E12  
R_RS         7 DSB  {Rs}  
E_E13         Vdrain DSB RDM DSB 1
G_ABMII2         RDM DSB VALUE { I(V_VDR)*((TEMP+273)/(V(TJ)+273))**1.5    }
M_X4         dr vg DSB DSB NMOS_L3
D_DBODY1         DSB DCB D_BODY
.ENDS    BUZ101S_L3

*
*
.SUBCKT BUZ101SL_L3  GATE DRAIN SOURCE TJ Tcase Tamb
.PARAM   Cgs=0.464N Cox=1.19N Kgd=0.438N VSW=-1.61 cjo_ds=0.436n
.PARAM   W=0.582 L=1.025U VTH=2.29 alpha=0.5 RG=1.6 RD=25.03M RS=1.0M LG=7N LD=5N LS=5N
.PARAM   nsub=9.7E16 tox=55E-9 uo=515 vmax=1.25E5 bv =62 trr=52n ISE=.25n  
.MODEL  D_BODY    D (BV= {bv},CJO ={cjo_ds},TT ={trr},IS ={ISE})
.MODEL	NMOS_L3	NMOS (LEVEL=3,W={W},L={L},VTO={VTH},nsub={nsub},tox={tox},vmax={vmax},u0={uo})
.PARAM  selfh={1} Rth1={0.021}  Rth2={0.1}  Rth3={0.2}  Rth4={0.33}  Rth5={0.316}  Rth6={0.104}
.PARAM  CZth1={1.5E-4} CZth2={1.4E-4} CZth3={3.0E-4} CZth4={8.91E-4} CZth5={4.0E-3} CZth6={0.045} 

E_ABM26         Vgox 0 VALUE { V(Vdg)-V(Vdepl)     }
S_S2         gcox cbias 0 vgcox S2
RS_S2        0 vgcox 1G
        .MODEL S2 VSWITCH Roff=1e6 Ron=100 Voff=-0.01 Von=0
R_R13         0 cbias  1E12  
S_S1         gi gcox 0 vgcox S1
RS_S1        0 vgcox 1G
        .MODEL S1 VSWITCH Roff=1e6 Ron=100 Voff=0 Von=-0.01
E_E10         cbias 0 VALUE { V(gi) }
L_LG         GATE 8  {LG}  
R_RG         8 gi  {RG}  
E_ABM11         Vdepl 0 VALUE { if (V(Vdg) >0.0, V(Vdg)   
+ +2*({Kgd}/{Cox})**2*(1-sqrt(1+(V(Vdg)/({Kgd}/{Cox})**2))),0)   }
E_E12         vgcox 0 VALUE { -V(DCB)+V(Vdepl)+{VSW} }
V_VDR         Vdrain dr DC 0V AC 0V 
E_ABM27       Vdg 0 VALUE { V(RDM)-V(gi)+{alpha}*(V(RDM)-V(DSB))**2    }
E_E14         RDP RKP VALUE { {alpha}*(V(RDM)-V(DSB))**2+I(V_VID)*
+ {RD}/(300/(V(TJ)+273))**1.5 }
R_RKLEIN         RDM RKP  .01m  
R_RDUMMY         RDM RDP  1E12  
G_G7         RDM gi VALUE { if (time>50n, DDT({Cox}*V(Vgox, 0)),0) }
L_LS         7  SOURCE  {LS}  
E_EVTH         vg gi VALUE { (V(TJ, 0)-{TEMP})*0.0025 }
R_Rth2         1 2  {Rth2}  
R_Rth1         TJ 1  {Rth1}  
C_CZth2         Tamb 1  {CZth2}  
C_CZth1         TJ Tamb  {CZth1}  
R_Rth3         2 3  {Rth3}  
R_Rth4         3 4  {Rth4}  
R_Rth5         4 5  {Rth5}  
R_Rth6         5 Tcase  {Rth6}  
C_CZth3         2 Tamb  {CZth3}  
C_CZth4         Tamb 3  {CZth4}  
C_CZth5         Tamb 4  {CZth5}  
C_CZth6         Tamb 5  {CZth6}  
L_LD         DCB DRAIN  {LD}  
V_VID         DCB RDP DC 0V AC 0V 
G_G8         0 TJ VALUE { if (time>50n, V(DCB, DSB)*I(L_LS)*{selfh},0) }
C_C8         DSB gcox  {Cox}  
R_RLKG         DSB gi  1E12  
C_CGS1         DSB gi  {Cgs}  
R_R8         DSB vg  1E12  
R_RS         7 DSB  {Rs}  
E_E13         Vdrain DSB RDM DSB 1
G_ABMII2         RDM DSB VALUE { I(V_VDR)*((TEMP+273)/(V(TJ)+273))**1.5    }
M_X4         dr vg DSB DSB NMOS_L3
D_DBODY1         DSB DCB D_BODY
.ENDS    BUZ101SL_L3
*
.SUBCKT BUZ102S_L3  GATE DRAIN SOURCE TJ Tcase Tamb
.PARAM   Cgs=0.944N Cox=2.14N Kgd=1.11N VSW=-1.61 cjo_ds=1.20n
.PARAM   W=1.483 L=1.025U VTH=3.68 alpha=0.5 RG=2 RD=9.2M RS=.8M LG=7N LD=5N LS=3.5N
.PARAM   nsub=1.03E17 tox=81E-9 uo=575 vmax=1.25E5 bv=62 trr=64n ISE=.6n  
.MODEL  D_BODY    D (BV= {bv},CJO ={cjo_ds},TT ={trr},IS ={ISE})
.MODEL	NMOS_L3	NMOS (LEVEL=3,W={W},L={L},VTO={VTH},nsub={nsub},tox={tox},vmax={vmax},u0={uo})
.PARAM  selfh={1} Rth1={0.008}  Rth2={0.039}  Rth3={0.084}  Rth4={0.143}  Rth5={0.163}  Rth6={0.065}
.PARAM  CZth1={3.8E-4} CZth2={3.61E-4} CZth3={7.6E-4} CZth4={2.1E-3} CZth5={8.47E-3} CZth6={0.075} 

E_ABM26         Vgox 0 VALUE { V(Vdg)-V(Vdepl)     }
S_S2         gcox cbias 0 vgcox S2
RS_S2        0 vgcox 1G
        .MODEL S2 VSWITCH Roff=1e6 Ron=100 Voff=-0.01 Von=0
R_R13         0 cbias  1E12  
S_S1         gi gcox 0 vgcox S1
RS_S1        0 vgcox 1G
        .MODEL S1 VSWITCH Roff=1e6 Ron=100 Voff=0 Von=-0.01
E_E10         cbias 0 VALUE { V(gi) }
L_LG         GATE 8  {LG}  
R_RG         8 gi  {RG}  
E_ABM11         Vdepl 0 VALUE { if (V(Vdg) >0.0, V(Vdg)   
+ +2*({Kgd}/{Cox})**2*(1-sqrt(1+(V(Vdg)/({Kgd}/{Cox})**2))),0)   }
E_E12         vgcox 0 VALUE { -V(DCB)+V(Vdepl)+{VSW} }
V_VDR         Vdrain dr DC 0V AC 0V 
E_ABM27       Vdg 0 VALUE { V(RDM)-V(gi)+{alpha}*(V(RDM)-V(DSB))**2    }
E_E14         RDP RKP VALUE { {alpha}*(V(RDM)-V(DSB))**2+I(V_VID)*
+ {RD}/(300/(V(TJ)+273))**1.5 }
R_RKLEIN         RDM RKP  .01m  
R_RDUMMY         RDM RDP  1E12  
G_G7         RDM gi VALUE { if (time>50n, DDT({Cox}*V(Vgox, 0)),0) }
L_LS         7  SOURCE  {LS}  
E_EVTH         vg gi VALUE { (V(TJ, 0)-{TEMP})*0.0025 }
R_Rth2         1 2  {Rth2}  
R_Rth1         TJ 1  {Rth1}  
C_CZth2         Tamb 1  {CZth2}  
C_CZth1         TJ Tamb  {CZth1}  
R_Rth3         2 3  {Rth3}  
R_Rth4         3 4  {Rth4}  
R_Rth5         4 5  {Rth5}  
R_Rth6         5 Tcase  {Rth6}  
C_CZth3         2 Tamb  {CZth3}  
C_CZth4         Tamb 3  {CZth4}  
C_CZth5         Tamb 4  {CZth5}  
C_CZth6         Tamb 5  {CZth6}  
L_LD         DCB DRAIN  {LD}  
V_VID         DCB RDP DC 0V AC 0V 
G_G8         0 TJ VALUE { if (time>50n, V(DCB, DSB)*I(L_LS)*{selfh},0) }
C_C8         DSB gcox  {Cox}  
R_RLKG         DSB gi  1E12  
C_CGS1         DSB gi  {Cgs}  
R_R8         DSB vg  1E12  
R_RS         7 DSB  {Rs}  
E_E13         Vdrain DSB RDM DSB 1
G_ABMII2         RDM DSB VALUE { I(V_VDR)*((TEMP+273)/(V(TJ)+273))**1.5    }
M_X4         dr vg DSB DSB NMOS_L3
D_DBODY1         DSB DCB D_BODY
.ENDS    BUZ102S_L3

*
*
.SUBCKT BUZ102SL_L3  GATE DRAIN SOURCE TJ Tcase Tamb
.PARAM   Cgs=1.09N Cox=3.57N Kgd=1.14N VSW=-1.61 cjo_ds=1.11n
.PARAM   W=1.507 L=1.025U VTH=2.29 alpha=0.5 RG=2 RD=9.2M RS=.8M LG=7N LD=5N LS=3.5N
.PARAM   nsub=9.7E16 tox=55E-9 uo=515 vmax=1.25E5 bv=62 trr=64n ISE=.6n  
.MODEL  D_BODY    D (BV= {bv},CJO ={cjo_ds},TT ={trr},IS ={ISE})
.MODEL	NMOS_L3	NMOS (LEVEL=3,W={W},L={L},VTO={VTH},nsub={nsub},tox={tox},vmax={vmax},u0={uo})
.PARAM  selfh={1} Rth1={0.008}  Rth2={0.039}  Rth3={0.084}  Rth4={0.143}  Rth5={0.163}  Rth6={0.065}
.PARAM  CZth1={3.8E-4} CZth2={3.61E-4} CZth3={7.6E-4} CZth4={2.1E-3} CZth5={8.47E-3} CZth6={0.075} 

E_ABM26         Vgox 0 VALUE { V(Vdg)-V(Vdepl)     }
S_S2         gcox cbias 0 vgcox S2
RS_S2        0 vgcox 1G
        .MODEL S2 VSWITCH Roff=1e6 Ron=100 Voff=-0.01 Von=0
R_R13         0 cbias  1E12  
S_S1         gi gcox 0 vgcox S1
RS_S1        0 vgcox 1G
        .MODEL S1 VSWITCH Roff=1e6 Ron=100 Voff=0 Von=-0.01
E_E10         cbias 0 VALUE { V(gi) }
L_LG         GATE 8  {LG}  
R_RG         8 gi  {RG}  
E_ABM11         Vdepl 0 VALUE { if (V(Vdg) >0.0, V(Vdg)   
+ +2*({Kgd}/{Cox})**2*(1-sqrt(1+(V(Vdg)/({Kgd}/{Cox})**2))),0)   }
E_E12         vgcox 0 VALUE { -V(DCB)+V(Vdepl)+{VSW} }
V_VDR         Vdrain dr DC 0V AC 0V 
E_ABM27       Vdg 0 VALUE { V(RDM)-V(gi)+{alpha}*(V(RDM)-V(DSB))**2    }
E_E14         RDP RKP VALUE { {alpha}*(V(RDM)-V(DSB))**2+I(V_VID)*
+ {RD}/(300/(V(TJ)+273))**1.5 }
R_RKLEIN         RDM RKP  .01m  
R_RDUMMY         RDM RDP  1E12  
G_G7         RDM gi VALUE { if (time>50n, DDT({Cox}*V(Vgox, 0)),0) }
L_LS         7  SOURCE  {LS}  
E_EVTH         vg gi VALUE { (V(TJ, 0)-{TEMP})*0.0025 }
R_Rth2         1 2  {Rth2}  
R_Rth1         TJ 1  {Rth1}  
C_CZth2         Tamb 1  {CZth2}  
C_CZth1         TJ Tamb  {CZth1}  
R_Rth3         2 3  {Rth3}  
R_Rth4         3 4  {Rth4}  
R_Rth5         4 5  {Rth5}  
R_Rth6         5 Tcase  {Rth6}  
C_CZth3         2 Tamb  {CZth3}  
C_CZth4         Tamb 3  {CZth4}  
C_CZth5         Tamb 4  {CZth5}  
C_CZth6         Tamb 5  {CZth6}  
L_LD         DCB DRAIN  {LD}  
V_VID         DCB RDP DC 0V AC 0V 
G_G8         0 TJ VALUE { if (time>50n, V(DCB, DSB)*I(L_LS)*{selfh},0) }
C_C8         DSB gcox  {Cox}  
R_RLKG         DSB gi  1E12  
C_CGS1         DSB gi  {Cgs}  
R_R8         DSB vg  1E12  
R_RS         7 DSB  {Rs}  
E_E13         Vdrain DSB RDM DSB 1
G_ABMII2         RDM DSB VALUE { I(V_VDR)*((TEMP+273)/(V(TJ)+273))**1.5    }
M_X4         dr vg DSB DSB NMOS_L3
D_DBODY1         DSB DCB D_BODY
.ENDS    BUZ102SL_L3
*
.SUBCKT BUZ103S_L3  GATE DRAIN SOURCE TJ Tcase Tamb
.PARAM   Cgs=0.579N Cox=1.20N Kgd=0.532N VSW=-1.61 cjo_ds=0.662n
.PARAM   W=0.814 L=1.025U VTH=3.68 alpha=0.5 RG=1.75 RD=17.2M RS=.8M LG=7N LD=5N LS=5N
.PARAM   nsub=1.03E17 tox=81E-9 uo=575 vmax=1.25E5 bv =62 trr=59n ISE=.32n  
.MODEL  D_BODY    D (BV= {bv},CJO ={cjo_ds},TT ={trr},IS ={ISE})
.MODEL	NMOS_L3	NMOS (LEVEL=3,W={W},L={L},VTO={VTH},nsub={nsub},tox={tox},vmax={vmax},u0={uo})
.PARAM  selfh={1} Rth1={0.015}  Rth2={0.069}  Rth3={0.146}  Rth4={0.237}  Rth5={0.248}  Rth6={0.088}
.PARAM  CZth1={2.1E-4} CZth2={2.02E-4} CZth3={4.3E-4} CZth4={1.235E-3} CZth5={5.3E-3} CZth6={0.054} 

E_ABM26         Vgox 0 VALUE { V(Vdg)-V(Vdepl)     }
S_S2         gcox cbias 0 vgcox S2
RS_S2        0 vgcox 1G
        .MODEL S2 VSWITCH Roff=1e6 Ron=100 Voff=-0.01 Von=0
R_R13         0 cbias  1E12  
S_S1         gi gcox 0 vgcox S1
RS_S1        0 vgcox 1G
        .MODEL S1 VSWITCH Roff=1e6 Ron=100 Voff=0 Von=-0.01
E_E10         cbias 0 VALUE { V(gi) }
L_LG         GATE 8  {LG}  
R_RG         8 gi  {RG}  
E_ABM11         Vdepl 0 VALUE { if (V(Vdg) >0.0, V(Vdg)   
+ +2*({Kgd}/{Cox})**2*(1-sqrt(1+(V(Vdg)/({Kgd}/{Cox})**2))),0)   }
E_E12         vgcox 0 VALUE { -V(DCB)+V(Vdepl)+{VSW} }
V_VDR         Vdrain dr DC 0V AC 0V 
E_ABM27       Vdg 0 VALUE { V(RDM)-V(gi)+{alpha}*(V(RDM)-V(DSB))**2    }
E_E14         RDP RKP VALUE { {alpha}*(V(RDM)-V(DSB))**2+I(V_VID)*
+ {RD}/(300/(V(TJ)+273))**1.5 }
R_RKLEIN         RDM RKP  .01m  
R_RDUMMY         RDM RDP  1E12  
G_G7         RDM gi VALUE { if (time>50n, DDT({Cox}*V(Vgox, 0)),0) }
L_LS         7  SOURCE  {LS}  
E_EVTH         vg gi VALUE { (V(TJ, 0)-{TEMP})*0.0025 }
R_Rth2         1 2  {Rth2}  
R_Rth1         TJ 1  {Rth1}  
C_CZth2         Tamb 1  {CZth2}  
C_CZth1         TJ Tamb  {CZth1}  
R_Rth3         2 3  {Rth3}  
R_Rth4         3 4  {Rth4}  
R_Rth5         4 5  {Rth5}  
R_Rth6         5 Tcase  {Rth6}  
C_CZth3         2 Tamb  {CZth3}  
C_CZth4         Tamb 3  {CZth4}  
C_CZth5         Tamb 4  {CZth5}  
C_CZth6         Tamb 5  {CZth6}  
L_LD         DCB DRAIN  {LD}  
V_VID         DCB RDP DC 0V AC 0V 
G_G8         0 TJ VALUE { if (time>50n, V(DCB, DSB)*I(L_LS)*{selfh},0) }
C_C8         DSB gcox  {Cox}  
R_RLKG         DSB gi  1E12  
C_CGS1         DSB gi  {Cgs}  
R_R8         DSB vg  1E12  
R_RS         7 DSB  {Rs}  
E_E13         Vdrain DSB RDM DSB 1
G_ABMII2         RDM DSB VALUE { I(V_VDR)*((TEMP+273)/(V(TJ)+273))**1.5    }
M_X4         dr vg DSB DSB NMOS_L3
D_DBODY1         DSB DCB D_BODY
.ENDS    BUZ103S_L3

*
*
.SUBCKT BUZ103SL_L3  GATE DRAIN SOURCE TJ Tcase Tamb
.PARAM   Cgs=0.643N Cox=1.93N Kgd=0.588N VSW=-1.61 cjo_ds=0.598n
.PARAM   W=0.819 L=1.025U VTH=2.29 alpha=0.5 RG=1.75 RD=18.26M RS=0.8M LG=7N LD=5N LS=5N
.PARAM   nsub=9.7E16 tox=55E-9 uo=515 vmax=1.25E5 bv =62 trr=58n ISE=.32n  
.MODEL  D_BODY    D (BV= {bv},CJO ={cjo_ds},TT ={trr},IS ={ISE})
.MODEL	NMOS_L3	NMOS (LEVEL=3,W={W},L={L},VTO={VTH},nsub={nsub},tox={tox},vmax={vmax},u0={uo})
.PARAM  selfh={1} Rth1={0.015}  Rth2={0.069}  Rth3={0.146}  Rth4={0.237}  Rth5={0.248}  Rth6={0.088}
.PARAM  CZth1={2.1E-4} CZth2={2.02E-4} CZth3={4.3E-4} CZth4={1.235E-3} CZth5={5.3E-3} CZth6={0.054} 

E_ABM26         Vgox 0 VALUE { V(Vdg)-V(Vdepl)     }
S_S2         gcox cbias 0 vgcox S2
RS_S2        0 vgcox 1G
        .MODEL S2 VSWITCH Roff=1e6 Ron=100 Voff=-0.01 Von=0
R_R13         0 cbias  1E12  
S_S1         gi gcox 0 vgcox S1
RS_S1        0 vgcox 1G
        .MODEL S1 VSWITCH Roff=1e6 Ron=100 Voff=0 Von=-0.01
E_E10         cbias 0 VALUE { V(gi) }
L_LG         GATE 8  {LG}  
R_RG         8 gi  {RG}  
E_ABM11         Vdepl 0 VALUE { if (V(Vdg) >0.0, V(Vdg)   
+ +2*({Kgd}/{Cox})**2*(1-sqrt(1+(V(Vdg)/({Kgd}/{Cox})**2))),0)   }
E_E12         vgcox 0 VALUE { -V(DCB)+V(Vdepl)+{VSW} }
V_VDR         Vdrain dr DC 0V AC 0V 
E_ABM27       Vdg 0 VALUE { V(RDM)-V(gi)+{alpha}*(V(RDM)-V(DSB))**2    }
E_E14         RDP RKP VALUE { {alpha}*(V(RDM)-V(DSB))**2+I(V_VID)*
+ {RD}/(300/(V(TJ)+273))**1.5 }
R_RKLEIN         RDM RKP  .01m  
R_RDUMMY         RDM RDP  1E12  
G_G7         RDM gi VALUE { if (time>50n, DDT({Cox}*V(Vgox, 0)),0) }
L_LS         7  SOURCE  {LS}  
E_EVTH         vg gi VALUE { (V(TJ, 0)-{TEMP})*0.0025 }
R_Rth2         1 2  {Rth2}  
R_Rth1         TJ 1  {Rth1}  
C_CZth2         Tamb 1  {CZth2}  
C_CZth1         TJ Tamb  {CZth1}  
R_Rth3         2 3  {Rth3}  
R_Rth4         3 4  {Rth4}  
R_Rth5         4 5  {Rth5}  
R_Rth6         5 Tcase  {Rth6}  
C_CZth3         2 Tamb  {CZth3}  
C_CZth4         Tamb 3  {CZth4}  
C_CZth5         Tamb 4  {CZth5}  
C_CZth6         Tamb 5  {CZth6}  
L_LD         DCB DRAIN  {LD}  
V_VID         DCB RDP DC 0V AC 0V 
G_G8         0 TJ VALUE { if (time>50n, V(DCB, DSB)*I(L_LS)*{selfh},0) }
C_C8         DSB gcox  {Cox}  
R_RLKG         DSB gi  1E12  
C_CGS1         DSB gi  {Cgs}  
R_R8         DSB vg  1E12  
R_RS         7 DSB  {Rs}  
E_E13         Vdrain DSB RDM DSB 1
G_ABMII2         RDM DSB VALUE { I(V_VDR)*((TEMP+273)/(V(TJ)+273))**1.5    }
M_X4         dr vg DSB DSB NMOS_L3
D_DBODY1         DSB DCB D_BODY
.ENDS    BUZ103SL_L3
*
.SUBCKT BUZ104S_L3  GATE DRAIN SOURCE TJ Tcase Tamb
.PARAM   Cgs=0.244N Cox=0.493N Kgd=0.265N VSW=-1.61 cjo_ds=0.252n
.PARAM   W=0.314 L=1.025U VTH=3.68 alpha=0.5 RG=1.5 RD=46M RS=1M LG=7N LD=5N LS=7N
.PARAM   nsub=1.03E17 tox=81E-9 uo=575 vmax=1.25E5 bv =62 trr=50n ISE=.13n  
.MODEL  D_BODY    D (BV= {bv},CJO ={cjo_ds},TT ={trr},IS ={ISE})
.MODEL	NMOS_L3	NMOS (LEVEL=3,W={W},L={L},VTO={VTH},nsub={nsub},tox={tox},vmax={vmax},u0={uo})
.PARAM  selfh={1} Rth1={0.037}  Rth2={0.169}  Rth3={0.337}  Rth4={0.504}  Rth5={0.446}  Rth6={0.13}
.PARAM  CZth1={8.26E-5} CZth2={8.1E-5} CZth3={1.8E-4} CZth4={5.53E-4} CZth5={2.72E-3} CZth6={0.035} 

E_ABM26         Vgox 0 VALUE { V(Vdg)-V(Vdepl)     }
S_S2         gcox cbias 0 vgcox S2
RS_S2        0 vgcox 1G
        .MODEL S2 VSWITCH Roff=1e6 Ron=100 Voff=-0.01 Von=0
R_R13         0 cbias  1E12  
S_S1         gi gcox 0 vgcox S1
RS_S1        0 vgcox 1G
        .MODEL S1 VSWITCH Roff=1e6 Ron=100 Voff=0 Von=-0.01
E_E10         cbias 0 VALUE { V(gi) }
L_LG         GATE 8  {LG}  
R_RG         8 gi  {RG}  
E_ABM11         Vdepl 0 VALUE { if (V(Vdg) >0.0, V(Vdg)   
+ +2*({Kgd}/{Cox})**2*(1-sqrt(1+(V(Vdg)/({Kgd}/{Cox})**2))),0)   }
E_E12         vgcox 0 VALUE { -V(DCB)+V(Vdepl)+{VSW} }
V_VDR         Vdrain dr DC 0V AC 0V 
E_ABM27       Vdg 0 VALUE { V(RDM)-V(gi)+{alpha}*(V(RDM)-V(DSB))**2    }
E_E14         RDP RKP VALUE { {alpha}*(V(RDM)-V(DSB))**2+I(V_VID)*
+ {RD}/(300/(V(TJ)+273))**1.5 }
R_RKLEIN         RDM RKP  .01m  
R_RDUMMY         RDM RDP  1E12  
G_G7         RDM gi VALUE { if (time>50n, DDT({Cox}*V(Vgox, 0)),0) }
L_LS         7  SOURCE  {LS}  
E_EVTH         vg gi VALUE { (V(TJ, 0)-{TEMP})*0.0025 }
R_Rth2         1 2  {Rth2}  
R_Rth1         TJ 1  {Rth1}  
C_CZth2         Tamb 1  {CZth2}  
C_CZth1         TJ Tamb  {CZth1}  
R_Rth3         2 3  {Rth3}  
R_Rth4         3 4  {Rth4}  
R_Rth5         4 5  {Rth5}  
R_Rth6         5 Tcase  {Rth6}  
C_CZth3         2 Tamb  {CZth3}  
C_CZth4         Tamb 3  {CZth4}  
C_CZth5         Tamb 4  {CZth5}  
C_CZth6         Tamb 5  {CZth6}  
L_LD         DCB DRAIN  {LD}  
V_VID         DCB RDP DC 0V AC 0V 
G_G8         0 TJ VALUE { if (time>50n, V(DCB, DSB)*I(L_LS)*{selfh},0) }
C_C8         DSB gcox  {Cox}  
R_RLKG         DSB gi  1E12  
C_CGS1         DSB gi  {Cgs}  
R_R8         DSB vg  1E12  
R_RS         7 DSB  {Rs}  
E_E13         Vdrain DSB RDM DSB 1
G_ABMII2         RDM DSB VALUE { I(V_VDR)*((TEMP+273)/(V(TJ)+273))**1.5    }
M_X4         dr vg DSB DSB NMOS_L3
D_DBODY1         DSB DCB D_BODY
.ENDS    BUZ104S_L3

*
*
.SUBCKT BUZ104SL_L3  GATE DRAIN SOURCE TJ Tcase Tamb
.PARAM   Cgs=0.268N Cox=0.726N Kgd=0.257N VSW=-1.61 cjo_ds=0.246n
.PARAM   W=0.323 L=1.025U VTH=2.29 alpha=0.5 RG=1.5 RD=48M RS=1M LG=7N LD=5N LS=7N
.PARAM   nsub=9.7E16 tox=55E-9 uo=515 vmax=1.25E5 bv =62 trr=50n ISE=.13n  
.MODEL  D_BODY    D (BV= {bv},CJO ={cjo_ds},TT ={trr},IS ={ISE})
.MODEL	NMOS_L3	NMOS (LEVEL=3,W={W},L={L},VTO={VTH},nsub={nsub},tox={tox},vmax={vmax},u0={uo})
.PARAM  selfh={1} Rth1={0.037}  Rth2={0.169}  Rth3={0.337}  Rth4={0.504}  Rth5={0.446}  Rth6={0.13}
.PARAM  CZth1={8.26E-5} CZth2={8.1E-5} CZth3={1.8E-4} CZth4={5.53E-4} CZth5={2.72E-3} CZth6={0.035} 

E_ABM26         Vgox 0 VALUE { V(Vdg)-V(Vdepl)     }
S_S2         gcox cbias 0 vgcox S2
RS_S2        0 vgcox 1G
        .MODEL S2 VSWITCH Roff=1e6 Ron=100 Voff=-0.01 Von=0
R_R13         0 cbias  1E12  
S_S1         gi gcox 0 vgcox S1
RS_S1        0 vgcox 1G
        .MODEL S1 VSWITCH Roff=1e6 Ron=100 Voff=0 Von=-0.01
E_E10         cbias 0 VALUE { V(gi) }
L_LG         GATE 8  {LG}  
R_RG         8 gi  {RG}  
E_ABM11         Vdepl 0 VALUE { if (V(Vdg) >0.0, V(Vdg)   
+ +2*({Kgd}/{Cox})**2*(1-sqrt(1+(V(Vdg)/({Kgd}/{Cox})**2))),0)   }
E_E12         vgcox 0 VALUE { -V(DCB)+V(Vdepl)+{VSW} }
V_VDR         Vdrain dr DC 0V AC 0V 
E_ABM27       Vdg 0 VALUE { V(RDM)-V(gi)+{alpha}*(V(RDM)-V(DSB))**2    }
E_E14         RDP RKP VALUE { {alpha}*(V(RDM)-V(DSB))**2+I(V_VID)*
+ {RD}/(300/(V(TJ)+273))**1.5 }
R_RKLEIN         RDM RKP  .01m  
R_RDUMMY         RDM RDP  1E12  
G_G7         RDM gi VALUE { if (time>50n, DDT({Cox}*V(Vgox, 0)),0) }
L_LS         7  SOURCE  {LS}  
E_EVTH         vg gi VALUE { (V(TJ, 0)-{TEMP})*0.0025 }
R_Rth2         1 2  {Rth2}  
R_Rth1         TJ 1  {Rth1}  
C_CZth2         Tamb 1  {CZth2}  
C_CZth1         TJ Tamb  {CZth1}  
R_Rth3         2 3  {Rth3}  
R_Rth4         3 4  {Rth4}  
R_Rth5         4 5  {Rth5}  
R_Rth6         5 Tcase  {Rth6}  
C_CZth3         2 Tamb  {CZth3}  
C_CZth4         Tamb 3  {CZth4}  
C_CZth5         Tamb 4  {CZth5}  
C_CZth6         Tamb 5  {CZth6}  
L_LD         DCB DRAIN  {LD}  
V_VID         DCB RDP DC 0V AC 0V 
G_G8         0 TJ VALUE { if (time>50n, V(DCB, DSB)*I(L_LS)*{selfh},0) }
C_C8         DSB gcox  {Cox}  
R_RLKG         DSB gi  1E12  
C_CGS1         DSB gi  {Cgs}  
R_R8         DSB vg  1E12  
R_RS         7 DSB  {Rs}  
E_E13         Vdrain DSB RDM DSB 1
G_ABMII2         RDM DSB VALUE { I(V_VDR)*((TEMP+273)/(V(TJ)+273))**1.5    }
M_X4         dr vg DSB DSB NMOS_L3
D_DBODY1         DSB DCB D_BODY
.ENDS    BUZ104SL_L3
*
.SUBCKT BUZ110S_L3  GATE DRAIN SOURCE TJ Tcase Tamb
.PARAM   Cgs=1.78N Cox=4.03N Kgd=2.11N VSW=-1.61 cjo_ds=2.28n
.PARAM   W=2.786 L=1.025U VTH=3.68 alpha=0.5 RG=2.7 RD=5.42M RS=.6M LG=7N LD=5N LS=2N
.PARAM   nsub=1.03E17 tox=81E-9 uo=575 vmax=1.25E5 bv =62 trr=82n ISE=1.4n  
.MODEL  D_BODY    D (BV= {bv},CJO ={cjo_ds},TT ={trr},IS ={ISE})
.MODEL	NMOS_L3	NMOS (LEVEL=3,W={W},L={L},VTO={VTH},nsub={nsub},tox={tox},vmax={vmax},u0={uo})
.PARAM  selfh={1} Rth1={0.0043}  Rth2={0.021}  Rth3={0.047}  Rth4={0.082}  Rth5={0.101}  Rth6={0.045}
.PARAM  CZth1={7.15E-4} CZth2={6.7E-4} CZth3={1.39E-3} CZth4={3.75E-3} CZth5={0.014} CZth6={0.112} 

E_ABM26         Vgox 0 VALUE { V(Vdg)-V(Vdepl)     }
S_S2         gcox cbias 0 vgcox S2
RS_S2        0 vgcox 1G
        .MODEL S2 VSWITCH Roff=1e6 Ron=100 Voff=-0.01 Von=0
R_R13         0 cbias  1E12  
S_S1         gi gcox 0 vgcox S1
RS_S1        0 vgcox 1G
        .MODEL S1 VSWITCH Roff=1e6 Ron=100 Voff=0 Von=-0.01
E_E10         cbias 0 VALUE { V(gi) }
L_LG         GATE 8  {LG}  
R_RG         8 gi  {RG}  
E_ABM11         Vdepl 0 VALUE { if (V(Vdg) >0.0, V(Vdg)   
+ +2*({Kgd}/{Cox})**2*(1-sqrt(1+(V(Vdg)/({Kgd}/{Cox})**2))),0)   }
E_E12         vgcox 0 VALUE { -V(DCB)+V(Vdepl)+{VSW} }
V_VDR         Vdrain dr DC 0V AC 0V 
E_ABM27       Vdg 0 VALUE { V(RDM)-V(gi)+{alpha}*(V(RDM)-V(DSB))**2    }
E_E14         RDP RKP VALUE { {alpha}*(V(RDM)-V(DSB))**2+I(V_VID)*
+ {RD}/(300/(V(TJ)+273))**1.5 }
R_RKLEIN         RDM RKP  .01m  
R_RDUMMY         RDM RDP  1E12  
G_G7         RDM gi VALUE { if (time>50n, DDT({Cox}*V(Vgox, 0)),0) }
L_LS         7  SOURCE  {LS}  
E_EVTH         vg gi VALUE { (V(TJ, 0)-{TEMP})*0.0025 }
R_Rth2         1 2  {Rth2}  
R_Rth1         TJ 1  {Rth1}  
C_CZth2         Tamb 1  {CZth2}  
C_CZth1         TJ Tamb  {CZth1}  
R_Rth3         2 3  {Rth3}  
R_Rth4         3 4  {Rth4}  
R_Rth5         4 5  {Rth5}  
R_Rth6         5 Tcase  {Rth6}  
C_CZth3         2 Tamb  {CZth3}  
C_CZth4         Tamb 3  {CZth4}  
C_CZth5         Tamb 4  {CZth5}  
C_CZth6         Tamb 5  {CZth6}  
L_LD         DCB DRAIN  {LD}  
V_VID         DCB RDP DC 0V AC 0V 
G_G8         0 TJ VALUE { if (time>50n, V(DCB, DSB)*I(L_LS)*{selfh},0) }
C_C8         DSB gcox  {Cox}  
R_RLKG         DSB gi  1E12  
C_CGS1         DSB gi  {Cgs}  
R_R8         DSB vg  1E12  
R_RS         7 DSB  {Rs}  
E_E13         Vdrain DSB RDM DSB 1
G_ABMII2         RDM DSB VALUE { I(V_VDR)*((TEMP+273)/(V(TJ)+273))**1.5    }
M_X4         dr vg DSB DSB NMOS_L3