*****************************************************************
* SIEMENS SIPMOS Power Transistors                              *
* SPICE Library for S-FET Version 1.6                  10/98    *
*                                                               *
* Models provided by SIEMENS are not warranted by SIEMENS as    *
* fully representing all of the specifications and operating    *
* characteristics of the semiconductor product to which the     *
* model relates. The model describe the characteristics of a    * 
* typical device.                                               * 
* In all cases, the current data sheet information for a given  *
* device is the final design guideline and the only actual      *
* performance specification.                                    *
* Altough models can be a useful tool in evaluating device      *
* performance, they cannot model exact device performance under *
* all conditions, nor are they intended to replace bread-       *
* boarding for final verification. SIEMENS therefore does not   *
* assume any liability arising from their use.                  *
* SIEMENS reserves the right to change models without prior     * 
* notice.                                                       *
*                                                               *
* This library contains models of the following SIEMENS         *
* S-FET Transistors:                                            *
*                                                               * 
*  BUZ100s / BUZ100sl                                           *
*  BUZ101s / BUZ101sl                                           *
*  BUZ102s / BUZ102sl                                           *
*  BUZ103s / BUZ103sl  =  SPD(U)31N05 / SPD(U)28N05L            *
*  BUZ104s / BUZ104sl  =  SPD(U)14N05 / SPD(U)13N05L            *
*  BUZ110s / BUZ110sl                                           *
*  BUZ111s / BUZ111sl                                           *
*  BSP320s / BSP318s                                            *  
*****************************************************************
*
*n-MOSFET**Add_in_Line
.SUBCKT BUZ100S_L1 GATE DRAIN SOURCE
.PARAM Cgs=0.411N Cox=3.12N Kgd=1.67N VSW=-1.61 cjo_ds=1.92n
.PARAM W=2.294 L=1.025U VTH=3.68 alpha=0.5 RG=2.3 RD=6.42M RS=.6M LG=7N LD=5N LS=3N
.PARAM nsub=1.03E17 tox=81E-9 uo=575 vmax=1.25E5 bv =62 trr=80n ISE=1.15n 
.MODEL DB_L1    D   (BV= {bv}, CJO ={cjo_ds},  TT ={trr}, IS ={ISE})
.MODEL NMOS_L3 NMOS (LEVEL=3,W={W},L={L},VTO={VTH},nsub={nsub},tox={tox},vmax={vmax},u0={uo})
R_RG         5 gi  {RG}  
S_S2         gcox cbias 0 vgcox S2
RS_S2        0 vgcox 1G
        .MODEL S2 VSWITCH Roff=1e6 Ron=100 Voff=-0.01 Von=0
S_S1         gi gcox 0 vgcox S1
RS_S1        0 vgcox 1G
        .MODEL S1 VSWITCH Roff=1e6 Ron=100 Voff=0 Von=-0.01
E_E5         vgcox 0 VALUE { -V(DCB)+V(Vdepl)+{VSW} }
R_RDUMMY         RDM RDP  1E12  
E_ABM11         Vdepl 0 VALUE { if (V(Vdg) >0.0, V(Vdg)   
+ +2*({Kgd}/{Cox})**2*(1-sqrt(1+(V(Vdg)/({Kgd}/{Cox})**2))),0)   }
E_ABM22         Vgox 0 VALUE { V(Vdg)-V(Vdepl)     }
D_D5         DSB DCB DB_L1 
R_RKLEIN         RDM RKP  .01m  
E_E6         cbias 0 VALUE { V(gi) }
R_R12         0 cbias  1E12  
M_X1         RDM gi DSB DSB NMOS_L3
R_R8         DSB gi  1E12  
C_C7         DSB gcox  {Cox}  
C_CGS1         DSB gi  {Cgs}  
R_RLKG         DSB gi  1E12  
V_VID         DCB RDP DC 0V AC 0V 
L_LD         DCB DRAIN  {LD}  
L_LS         SOURCE 7  {LS}  
R_RS         7 DSB  {RS}  
E_E4         RDP RKP VALUE { {alpha}*(V(RDM)-V(DSB))**2+I(V_VID)*
+ {RD}/(300/(TEMP+273))**1.5 }
L_LG         GATE 5  {LG}  
G_G4         RDM gi VALUE { if (time>50n, DDT({Cox}*V(Vgox, 0)),0) }
E_ABM21         Vdg 0 VALUE { V(RDM)-V(gi)+{alpha}*(V(RDM)-V(DSB))**2    }
.ENDS    BUZ100S_L1

*n-MOSFET**Add_in_Line
.SUBCKT BUZ100SL_L1 GATE DRAIN SOURCE
.PARAM   Cgs=0.458N Cox=5.0N Kgd=1.55N VSW=-1.61 cjo_ds=1.81n
.PARAM   W=2.404 L=1.025U VTH=2.29 alpha=0.5 RG=2.3 RD=7.4M RS=.6M LG=7N LD=5N LS=3N
.PARAM   nsub=9.7E16 tox=55E-9 uo=515 vmax=1.25E5 bv =62 trr=80n ISE=1.15n
.MODEL DB_L1    D   (BV= {bv}, CJO ={cjo_ds})
.MODEL NMOS_L3 NMOS (LEVEL=3,W={W},L={L},VTO={VTH},nsub={nsub},tox={tox},vmax={vmax},u0={uo})
R_RG         5 gi  {RG}  
S_S2         gcox cbias 0 vgcox S2
RS_S2        0 vgcox 1G
        .MODEL S2 VSWITCH Roff=1e6 Ron=100 Voff=-0.01 Von=0
S_S1         gi gcox 0 vgcox S1
RS_S1        0 vgcox 1G
        .MODEL S1 VSWITCH Roff=1e6 Ron=100 Voff=0 Von=-0.01
E_E5         vgcox 0 VALUE { -V(DCB)+V(Vdepl)+{VSW} }
R_RDUMMY         RDM RDP  1E12  
E_ABM11         Vdepl 0 VALUE { if (V(Vdg) >0.0, V(Vdg)   
+ +2*({Kgd}/{Cox})**2*(1-sqrt(1+(V(Vdg)/({Kgd}/{Cox})**2))),0)   }
E_ABM22         Vgox 0 VALUE { V(Vdg)-V(Vdepl)     }
D_D5         DSB DCB DB_L1 
R_RKLEIN         RDM RKP  .01m  
E_E6         cbias 0 VALUE { V(gi) }
R_R12         0 cbias  1E12  
M_X1         RDM gi DSB DSB NMOS_L3
R_R8         DSB gi  1E12  
C_C7         DSB gcox  {Cox}  
C_CGS1         DSB gi  {Cgs}  
R_RLKG         DSB gi  1E12  
V_VID         DCB RDP DC 0V AC 0V 
L_LD         DCB DRAIN  {LD}  
L_LS         SOURCE 7  {LS}  
R_RS         7 DSB  {RS}  
E_E4         RDP RKP VALUE { {alpha}*(V(RDM)-V(DSB))**2+I(V_VID)*
+ {RD}/(300/(TEMP+273))**1.5 }
L_LG         GATE 5  {LG}  
G_G4         RDM gi VALUE { if (time>50n, DDT({Cox}*V(Vgox, 0)),0) }
E_ABM21         Vdg 0 VALUE { V(RDM)-V(gi)+{alpha}*(V(RDM)-V(DSB))**2    }
.ENDS    BUZ100SL_L1

*n-MOSFET**Add_in_Line
.SUBCKT BUZ101S_L1 GATE DRAIN SOURCE
.PARAM   Cgs=0.142N Cox=0.901N Kgd=0.514N VSW=-1.61 cjo_ds=0.436n
.PARAM   W=0.558 L=1.025U VTH=3.68 alpha=0.5 RG=1.6 RD=27.0M RS=1.0M LG=7N LD=5N LS=5N
.PARAM   nsub=1.03E17 tox=81E-9 uo=575 vmax=1.25E5 bv =62 trr=55n ISE=.25n  
.MODEL DB_L1    D   (BV= {bv}, CJO ={cjo_ds},  TT ={trr}, IS ={ISE})
.MODEL NMOS_L3 NMOS (LEVEL=3,W={W},L={L},VTO={VTH},nsub={nsub},tox={tox},vmax={vmax},u0={uo})
R_RG         5 gi  {RG}  
S_S2         gcox cbias 0 vgcox S2
RS_S2        0 vgcox 1G
        .MODEL S2 VSWITCH Roff=1e6 Ron=100 Voff=-0.01 Von=0
S_S1         gi gcox 0 vgcox S1
RS_S1        0 vgcox 1G
        .MODEL S1 VSWITCH Roff=1e6 Ron=100 Voff=0 Von=-0.01
E_E5         vgcox 0 VALUE { -V(DCB)+V(Vdepl)+{VSW} }
R_RDUMMY         RDM RDP  1E12  
E_ABM11         Vdepl 0 VALUE { if (V(Vdg) >0.0, V(Vdg)   
+ +2*({Kgd}/{Cox})**2*(1-sqrt(1+(V(Vdg)/({Kgd}/{Cox})**2))),0)   }
E_ABM22         Vgox 0 VALUE { V(Vdg)-V(Vdepl)     }
D_D5         DSB DCB DB_L1 
R_RKLEIN         RDM RKP  .01m  
E_E6         cbias 0 VALUE { V(gi) }
R_R12         0 cbias  1E12  
M_X1         RDM gi DSB DSB NMOS_L3
R_R8         DSB gi  1E12  
C_C7         DSB gcox  {Cox}  
C_CGS1         DSB gi  {Cgs}  
R_RLKG         DSB gi  1E12  
V_VID         DCB RDP DC 0V AC 0V 
L_LD         DCB DRAIN  {LD}  
L_LS         SOURCE 7  {LS}  
R_RS         7 DSB  {RS}  
E_E4         RDP RKP VALUE { {alpha}*(V(RDM)-V(DSB))**2+I(V_VID)*
+ {RD}/(300/(TEMP+273))**1.5 }
L_LG         GATE 5  {LG}  
G_G4         RDM gi VALUE { if (time>50n, DDT({Cox}*V(Vgox, 0)),0) }
E_ABM21         Vdg 0 VALUE { V(RDM)-V(gi)+{alpha}*(V(RDM)-V(DSB))**2    }
.ENDS    BUZ101S_L1

*n-MOSFET**Add_in_Line
.SUBCKT BUZ101SL_L1 GATE DRAIN SOURCE
.PARAM   Cgs=0.116N Cox=1.19N Kgd=0.438N VSW=-1.61 cjo_ds=0.436n
.PARAM   W=0.582 L=1.025U VTH=2.29 alpha=0.5 RG=1.6 RD=25.03M RS=1.0M LG=7N LD=5N LS=5N
.PARAM   nsub=9.7E16 tox=55E-9 uo=515 vmax=1.25E5 bv =62 trr=52n ISE=.25n  
.MODEL DB_L1   D   (BV= {bv}, CJO ={cjo_ds},  TT ={trr}, IS ={ISE})
.MODEL NMOS_L3 NMOS (LEVEL=3,W={W},L={L},VTO={VTH},nsub={nsub},tox={tox},vmax={vmax},u0={uo})
R_RG         5 gi  {RG}  
S_S2         gcox cbias 0 vgcox S2
RS_S2        0 vgcox 1G
        .MODEL S2 VSWITCH Roff=1e6 Ron=100 Voff=-0.01 Von=0
S_S1         gi gcox 0 vgcox S1
RS_S1        0 vgcox 1G
        .MODEL S1 VSWITCH Roff=1e6 Ron=100 Voff=0 Von=-0.01
E_E5         vgcox 0 VALUE { -V(DCB)+V(Vdepl)+{VSW} }
R_RDUMMY         RDM RDP  1E12  
E_ABM11         Vdepl 0 VALUE { if (V(Vdg) >0.0, V(Vdg)   
+ +2*({Kgd}/{Cox})**2*(1-sqrt(1+(V(Vdg)/({Kgd}/{Cox})**2))),0)   }
E_ABM22         Vgox 0 VALUE { V(Vdg)-V(Vdepl)     }
D_D5         DSB DCB DB_L1 
R_RKLEIN         RDM RKP  .01m  
E_E6         cbias 0 VALUE { V(gi) }
R_R12         0 cbias  1E12  
M_X1         RDM gi DSB DSB NMOS_L3
R_R8         DSB gi  1E12  
C_C7         DSB gcox  {Cox}  
C_CGS1         DSB gi  {Cgs}  
R_RLKG         DSB gi  1E12  
V_VID         DCB RDP DC 0V AC 0V 
L_LD         DCB DRAIN  {LD}  
L_LS         SOURCE 7  {LS}  
R_RS         7 DSB  {RS}  
E_E4         RDP RKP VALUE { {alpha}*(V(RDM)-V(DSB))**2+I(V_VID)*
+ {RD}/(300/(TEMP+273))**1.5 }
L_LG         GATE 5  {LG}  
G_G4         RDM gi VALUE { if (time>50n, DDT({Cox}*V(Vgox, 0)),0) }
E_ABM21         Vdg 0 VALUE { V(RDM)-V(gi)+{alpha}*(V(RDM)-V(DSB))**2    }
.ENDS    BUZ101SL_L1

*n-MOSFET**Add_in_Line
.SUBCKT BUZ102S_L1 GATE DRAIN SOURCE
.PARAM   Cgs=0.283N Cox=2.14N Kgd=1.11N VSW=-1.61 cjo_ds=1.20n
.PARAM   W=1.483 L=1.025U VTH=3.68 alpha=0.5 RG=2 RD=9.2M RS=.8M LG=7N LD=5N LS=3.5N
.PARAM   nsub=1.03E17 tox=81E-9 uo=575 vmax=1.25E5 bv =62 trr=64n ISE=.6n  
.MODEL DB_L1   D   (BV= {bv}, CJO ={cjo_ds},  TT ={trr}, IS ={ISE})
.MODEL NMOS_L3 NMOS (LEVEL=3,W={W},L={L},VTO={VTH},nsub={nsub},tox={tox},vmax={vmax},u0={uo})
R_RG         5 gi  {RG}  
S_S2         gcox cbias 0 vgcox S2
RS_S2        0 vgcox 1G
        .MODEL S2 VSWITCH Roff=1e6 Ron=100 Voff=-0.01 Von=0
S_S1         gi gcox 0 vgcox S1
RS_S1        0 vgcox 1G
        .MODEL S1 VSWITCH Roff=1e6 Ron=100 Voff=0 Von=-0.01
E_E5         vgcox 0 VALUE { -V(DCB)+V(Vdepl)+{VSW} }
R_RDUMMY         RDM RDP  1E12  
E_ABM11         Vdepl 0 VALUE { if (V(Vdg) >0.0, V(Vdg)   
+ +2*({Kgd}/{Cox})**2*(1-sqrt(1+(V(Vdg)/({Kgd}/{Cox})**2))),0)   }
E_ABM22         Vgox 0 VALUE { V(Vdg)-V(Vdepl)     }
D_D5         DSB DCB DB_L1 
R_RKLEIN         RDM RKP  .01m  
E_E6         cbias 0 VALUE { V(gi) }
R_R12         0 cbias  1E12  
M_X1         RDM gi DSB DSB NMOS_L3
R_R8         DSB gi  1E12  
C_C7         DSB gcox  {Cox}  
C_CGS1         DSB gi  {Cgs}  
R_RLKG         DSB gi  1E12  
V_VID         DCB RDP DC 0V AC 0V 
L_LD         DCB DRAIN  {LD}  
L_LS         SOURCE 7  {LS}  
R_RS         7 DSB  {RS}  
E_E4         RDP RKP VALUE { {alpha}*(V(RDM)-V(DSB))**2+I(V_VID)*
+ {RD}/(300/(TEMP+273))**1.5 }
L_LG         GATE 5  {LG}  
G_G4         RDM gi VALUE { if (time>50n, DDT({Cox}*V(Vgox, 0)),0) }
E_ABM21         Vdg 0 VALUE { V(RDM)-V(gi)+{alpha}*(V(RDM)-V(DSB))**2    }
.ENDS    BUZ102S_L1

*n-MOSFET**Add_in_Line
.SUBCKT BUZ102SL_L1 GATE DRAIN SOURCE
.PARAM   Cgs=0.273N Cox=3.57N Kgd=1.14N VSW=-1.61 cjo_ds=1.11n
.PARAM   W=1.507 L=1.025U VTH=2.29 alpha=0.5 RG=2 RD=9.2M RS=.8M LG=7N LD=5N LS=3.5N
.PARAM   nsub=9.7E16 tox=55E-9 uo=515 vmax=1.25E5 bv =62 trr=64n ISE=.6n  
.MODEL DB_L1   D   (BV= {bv}, CJO ={cjo_ds},  TT ={trr}, IS ={ISE})
.MODEL NMOS_L3 NMOS (LEVEL=3,W={W},L={L},VTO={VTH},nsub={nsub},tox={tox},vmax={vmax},u0={uo})
R_RG         5 gi  {RG}  
S_S2         gcox cbias 0 vgcox S2
RS_S2        0 vgcox 1G
        .MODEL S2 VSWITCH Roff=1e6 Ron=100 Voff=-0.01 Von=0
S_S1         gi gcox 0 vgcox S1
RS_S1        0 vgcox 1G
        .MODEL S1 VSWITCH Roff=1e6 Ron=100 Voff=0 Von=-0.01
E_E5         vgcox 0 VALUE { -V(DCB)+V(Vdepl)+{VSW} }
R_RDUMMY         RDM RDP  1E12  
E_ABM11         Vdepl 0 VALUE { if (V(Vdg) >0.0, V(Vdg)   
+ +2*({Kgd}/{Cox})**2*(1-sqrt(1+(V(Vdg)/({Kgd}/{Cox})**2))),0)   }
E_ABM22         Vgox 0 VALUE { V(Vdg)-V(Vdepl)     }
D_D5         DSB DCB DB_L1 
R_RKLEIN         RDM RKP  .01m  
E_E6         cbias 0 VALUE { V(gi) }
R_R12         0 cbias  1E12  
M_X1         RDM gi DSB DSB NMOS_L3
R_R8         DSB gi  1E12  
C_C7         DSB gcox  {Cox}  
C_CGS1         DSB gi  {Cgs}  
R_RLKG         DSB gi  1E12  
V_VID         DCB RDP DC 0V AC 0V 
L_LD         DCB DRAIN  {LD}  
L_LS         SOURCE 7  {LS}  
R_RS         7 DSB  {RS}  
E_E4         RDP RKP VALUE { {alpha}*(V(RDM)-V(DSB))**2+I(V_VID)*
+ {RD}/(300/(TEMP+273))**1.5 }
L_LG         GATE 5  {LG}  
G_G4         RDM gi VALUE { if (time>50n, DDT({Cox}*V(Vgox, 0)),0) }
E_ABM21         Vdg 0 VALUE { V(RDM)-V(gi)+{alpha}*(V(RDM)-V(DSB))**2    }
.ENDS    BUZ102SL_L1

*n-MOSFET**Add_in_Line
.SUBCKT BUZ103S_L1 GATE DRAIN SOURCE
.PARAM   Cgs=0.174N Cox=1.20N Kgd=0.532N VSW=-1.61 cjo_ds=0.662n
.PARAM   W=0.814 L=1.025U VTH=3.68 alpha=0.5 RG=1.75 RD=17.2M RS=.8M LG=7N LD=5N LS=5N
.PARAM   nsub=1.03E17 tox=81E-9 uo=575 vmax=1.25E5 bv =62 trr=59n ISE=.32n  
.MODEL DB_L1   D   (BV= {bv}, CJO ={cjo_ds},  TT ={trr}, IS ={ISE})
.MODEL NMOS_L3 NMOS (LEVEL=3,W={W},L={L},VTO={VTH},nsub={nsub},tox={tox},vmax={vmax},u0={uo})
R_RG         5 gi  {RG}  
S_S2         gcox cbias 0 vgcox S2
RS_S2        0 vgcox 1G
        .MODEL S2 VSWITCH Roff=1e6 Ron=100 Voff=-0.01 Von=0
S_S1         gi gcox 0 vgcox S1
RS_S1        0 vgcox 1G
        .MODEL S1 VSWITCH Roff=1e6 Ron=100 Voff=0 Von=-0.01
E_E5         vgcox 0 VALUE { -V(DCB)+V(Vdepl)+{VSW} }
R_RDUMMY         RDM RDP  1E12  
E_ABM11         Vdepl 0 VALUE { if (V(Vdg) >0.0, V(Vdg)   
+ +2*({Kgd}/{Cox})**2*(1-sqrt(1+(V(Vdg)/({Kgd}/{Cox})**2))),0)   }
E_ABM22         Vgox 0 VALUE { V(Vdg)-V(Vdepl)     }
D_D5         DSB DCB DB_L1 
R_RKLEIN         RDM RKP  .01m  
E_E6         cbias 0 VALUE { V(gi) }
R_R12         0 cbias  1E12  
M_X1         RDM gi DSB DSB NMOS_L3
R_R8         DSB gi  1E12  
C_C7         DSB gcox  {Cox}  
C_CGS1         DSB gi  {Cgs}  
R_RLKG         DSB gi  1E12  
V_VID         DCB RDP DC 0V AC 0V 
L_LD         DCB DRAIN  {LD}  
L_LS         SOURCE 7  {LS}  
R_RS         7 DSB  {RS}  
E_E4         RDP RKP VALUE { {alpha}*(V(RDM)-V(DSB))**2+I(V_VID)*
+ {RD}/(300/(TEMP+273))**1.5 }
L_LG         GATE 5  {LG}  
G_G4         RDM gi VALUE { if (time>50n, DDT({Cox}*V(Vgox, 0)),0) }
E_ABM21         Vdg 0 VALUE { V(RDM)-V(gi)+{alpha}*(V(RDM)-V(DSB))**2    }
.ENDS    BUZ103S_L1

*n-MOSFET**Add_in_Line
.SUBCKT BUZ103SL_L1 GATE DRAIN SOURCE
.PARAM   Cgs=0.161N Cox=1.93N Kgd=0.588N VSW=-1.61 cjo_ds=0.598n
.PARAM   W=0.819 L=1.025U VTH=2.29 alpha=0.5 RG=1.75 RD=18.26M RS=0.8M LG=7N LD=5N LS=5N
.PARAM   nsub=9.7E16 tox=55E-9 uo=515 vmax=1.25E5 bv =62 trr=58n ISE=.32n  
.MODEL DB_L1   D   (BV= {bv}, CJO ={cjo_ds},  TT ={trr}, IS ={ISE})
.MODEL NMOS_L3 NMOS (LEVEL=3,W={W},L={L},VTO={VTH},nsub={nsub},tox={tox},vmax={vmax},u0={uo})
R_RG         5 gi  {RG}  
S_S2         gcox cbias 0 vgcox S2
RS_S2        0 vgcox 1G
        .MODEL S2 VSWITCH Roff=1e6 Ron=100 Voff=-0.01 Von=0
S_S1         gi gcox 0 vgcox S1
RS_S1        0 vgcox 1G
        .MODEL S1 VSWITCH Roff=1e6 Ron=100 Voff=0 Von=-0.01
E_E5         vgcox 0 VALUE { -V(DCB)+V(Vdepl)+{VSW} }
R_RDUMMY         RDM RDP  1E12  
E_ABM11         Vdepl 0 VALUE { if (V(Vdg) >0.0, V(Vdg)   
+ +2*({Kgd}/{Cox})**2*(1-sqrt(1+(V(Vdg)/({Kgd}/{Cox})**2))),0)   }
E_ABM22         Vgox 0 VALUE { V(Vdg)-V(Vdepl)     }
D_D5         DSB DCB DB_L1 
R_RKLEIN         RDM RKP  .01m  
E_E6         cbias 0 VALUE { V(gi) }
R_R12         0 cbias  1E12  
M_X1         RDM gi DSB DSB NMOS_L3
R_R8         DSB gi  1E12  
C_C7         DSB gcox  {Cox}  
C_CGS1         DSB gi  {Cgs}  
R_RLKG         DSB gi  1E12  
V_VID         DCB RDP DC 0V AC 0V 
L_LD         DCB DRAIN  {LD}  
L_LS         SOURCE 7  {LS}  
R_RS         7 DSB  {RS}  
E_E4         RDP RKP VALUE { {alpha}*(V(RDM)-V(DSB))**2+I(V_VID)*
+ {RD}/(300/(TEMP+273))**1.5 }
L_LG         GATE 5  {LG}  
G_G4         RDM gi VALUE { if (time>50n, DDT({Cox}*V(Vgox, 0)),0) }
E_ABM21         Vdg 0 VALUE { V(RDM)-V(gi)+{alpha}*(V(RDM)-V(DSB))**2    }
.ENDS    BUZ103SL_L1

*n-MOSFET**Add_in_Line
.SUBCKT BUZ104S_L1 GATE DRAIN SOURCE
.PARAM   Cgs=0.0732N Cox=0.493N Kgd=0.265N VSW=-1.61 cjo_ds=0.252n
.PARAM   W=0.314 L=1.025U VTH=3.68 alpha=0.5 RG=1.5 RD=46M RS=1M LG=7N LD=5N LS=7N
.PARAM   nsub=1.03E17 tox=81E-9 uo=575 vmax=1.25E5 bv =62 trr=50n ISE=.13n  
.MODEL DB_L1   D   (BV= {bv}, CJO ={cjo_ds},  TT ={trr}, IS ={ISE})
.MODEL NMOS_L3 NMOS (LEVEL=3,W={W},L={L},VTO={VTH},nsub={nsub},tox={tox},vmax={vmax},u0={uo})
R_RG         5 gi  {RG}  
S_S2         gcox cbias 0 vgcox S2
RS_S2        0 vgcox 1G
        .MODEL S2 VSWITCH Roff=1e6 Ron=100 Voff=-0.01 Von=0
S_S1         gi gcox 0 vgcox S1
RS_S1        0 vgcox 1G
        .MODEL S1 VSWITCH Roff=1e6 Ron=100 Voff=0 Von=-0.01
E_E5         vgcox 0 VALUE { -V(DCB)+V(Vdepl)+{VSW} }
R_RDUMMY         RDM RDP  1E12  
E_ABM11         Vdepl 0 VALUE { if (V(Vdg) >0.0, V(Vdg)   
+ +2*({Kgd}/{Cox})**2*(1-sqrt(1+(V(Vdg)/({Kgd}/{Cox})**2))),0)   }
E_ABM22         Vgox 0 VALUE { V(Vdg)-V(Vdepl)     }
D_D5         DSB DCB DB_L1 
R_RKLEIN         RDM RKP  .01m  
E_E6         cbias 0 VALUE { V(gi) }
R_R12         0 cbias  1E12  
M_X1         RDM gi DSB DSB NMOS_L3
R_R8         DSB gi  1E12  
C_C7         DSB gcox  {Cox}  
C_CGS1         DSB gi  {Cgs}  
R_RLKG         DSB gi  1E12  
V_VID         DCB RDP DC 0V AC 0V 
L_LD         DCB DRAIN  {LD}  
L_LS         SOURCE 7  {LS}  
R_RS         7 DSB  {RS}  
E_E4         RDP RKP VALUE { {alpha}*(V(RDM)-V(DSB))**2+I(V_VID)*
+ {RD}/(300/(TEMP+273))**1.5 }
L_LG         GATE 5  {LG}  
G_G4         RDM gi VALUE { if (time>50n, DDT({Cox}*V(Vgox, 0)),0) }
E_ABM21         Vdg 0 VALUE { V(RDM)-V(gi)+{alpha}*(V(RDM)-V(DSB))**2    }
.ENDS    BUZ104S_L1

*n-MOSFET**Add_in_Line
.SUBCKT BUZ104SL_L1 GATE DRAIN SOURCE
.PARAM   Cgs=0.067N Cox=0.726N Kgd=0.257N VSW=-1.61 cjo_ds=0.246n
.PARAM   W=0.323 L=1.025U VTH=2.29 alpha=0.5 RG=1.5 RD=48M RS=1M LG=7N LD=5N LS=7N
.PARAM   nsub=9.7E16 tox=55E-9 uo=515 vmax=1.25E5 bv =62 trr=50n ISE=.13n  
.MODEL DB_L1   D   (BV= {bv}, CJO ={cjo_ds},  TT ={trr}, IS ={ISE})
.MODEL NMOS_L3 NMOS (LEVEL=3,W={W},L={L},VTO={VTH},nsub={nsub},tox={tox},vmax={vmax},u0={uo})
R_RG         5 gi  {RG}  
S_S2         gcox cbias 0 vgcox S2
RS_S2        0 vgcox 1G
        .MODEL S2 VSWITCH Roff=1e6 Ron=100 Voff=-0.01 Von=0
S_S1         gi gcox 0 vgcox S1
RS_S1        0 vgcox 1G
        .MODEL S1 VSWITCH Roff=1e6 Ron=100 Voff=0 Von=-0.01
E_E5         vgcox 0 VALUE { -V(DCB)+V(Vdepl)+{VSW} }
R_RDUMMY         RDM RDP  1E12  
E_ABM11         Vdepl 0 VALUE { if (V(Vdg) >0.0, V(Vdg)   
+ +2*({Kgd}/{Cox})**2*(1-sqrt(1+(V(Vdg)/({Kgd}/{Cox})**2))),0)   }
E_ABM22         Vgox 0 VALUE { V(Vdg)-V(Vdepl)     }
D_D5         DSB DCB DB_L1 
R_RKLEIN         RDM RKP  .01m  
E_E6         cbias 0 VALUE { V(gi) }
R_R12         0 cbias  1E12  
M_X1         RDM gi DSB DSB NMOS_L3
R_R8         DSB gi  1E12  
C_C7         DSB gcox  {Cox}  
C_CGS1         DSB gi  {Cgs}  
R_RLKG         DSB gi  1E12  
V_VID         DCB RDP DC 0V AC 0V 
L_LD         DCB DRAIN  {LD}  
L_LS         SOURCE 7  {LS}  
R_RS         7 DSB  {RS}  
E_E4         RDP RKP VALUE { {alpha}*(V(RDM)-V(DSB))**2+I(V_VID)*
+ {RD}/(300/(TEMP+273))**1.5 }
L_LG         GATE 5  {LG}  
G_G4         RDM gi VALUE { if (time>50n, DDT({Cox}*V(Vgox, 0)),0) }
E_ABM21         Vdg 0 VALUE { V(RDM)-V(gi)+{alpha}*(V(RDM)-V(DSB))**2    }
.ENDS    BUZ104SL_L1

*n-MOSFET**Add_in_Line
.SUBCKT BUZ110S_L1 GATE DRAIN SOURCE
.PARAM   Cgs=0.534N Cox=4.03N Kgd=2.11N VSW=-1.61 cjo_ds=2.28n
.PARAM   W=2.786 L=1.025U VTH=3.68 alpha=0.5 RG=2.7 RD=5.42M RS=.6M LG=7N LD=5N LS=2N
.PARAM   nsub=1.03E17 tox=81E-9 uo=575 vmax=1.25E5 bv =62 trr=82n ISE=1.4n  
.MODEL DB_L1   D   (BV= {bv}, CJO ={cjo_ds},  TT ={trr}, IS ={ISE})
.MODEL NMOS_L3 NMOS (LEVEL=3,W={W},L={L},VTO={VTH},nsub={nsub},tox={tox},vmax={vmax},u0={uo})
R_RG         5 gi  {RG}  
S_S2         gcox cbias 0 vgcox S2
RS_S2        0 vgcox 1G
        .MODEL S2 VSWITCH Roff=1e6 Ron=100 Voff=-0.01 Von=0
S_S1         gi gcox 0 vgcox S1
RS_S1        0 vgcox 1G
        .MODEL S1 VSWITCH Roff=1e6 Ron=100 Voff=0 Von=-0.01
E_E5         vgcox 0 VALUE { -V(DCB)+V(Vdepl)+{VSW} }
R_RDUMMY         RDM RDP  1E12  
E_ABM11         Vdepl 0 VALUE { if (V(Vdg) >0.0, V(Vdg)   
+ +2*({Kgd}/{Cox})**2*(1-sqrt(1+(V(Vdg)/({Kgd}/{Cox})**2))),0)   }
E_ABM22         Vgox 0 VALUE { V(Vdg)-V(Vdepl)     }
D_D5         DSB DCB DB_L1 
R_RKLEIN         RDM RKP  .01m  
E_E6         cbias 0 VALUE { V(gi) }
R_R12         0 cbias  1E12  
M_X1         RDM gi DSB DSB NMOS_L3
R_R8         DSB gi  1E12  
C_C7         DSB gcox  {Cox}  
C_CGS1         DSB gi  {Cgs}  
R_RLKG         DSB gi  1E12  
V_VID         DCB RDP DC 0V AC 0V 
L_LD         DCB DRAIN  {LD}  
L_LS         SOURCE 7  {LS}  
R_RS         7 DSB  {RS}  
E_E4         RDP RKP VALUE { {alpha}*(V(RDM)-V(DSB))**2+I(V_VID)*
+ {RD}/(300/(TEMP+273))**1.5 }
L_LG         GATE 5  {LG}  
G_G4         RDM gi VALUE { if (time>50n, DDT({Cox}*V(Vgox, 0)),0) }
E_ABM21         Vdg 0 VALUE { V(RDM)-V(gi)+{alpha}*(V(RDM)-V(DSB))**2    }
.ENDS    BUZ110S_L1

*n-MOSFET**Add_in_Line
.SUBCKT BUZ110SL_L1 GATE DRAIN SOURCE
.PARAM   Cgs=0.478N Cox=6.16N Kgd=2.06N VSW=-1.61 cjo_ds=2.21n
.PARAM   W=2.790 L=1.025U VTH=2.29 alpha=0.5 RG=2.7 RD=5.45M RS=.6M LG=7N LD=5N LS=2N
.PARAM   nsub=9.7E16 tox=55E-9 uo=515 vmax=1.25E5 bv =62 trr=91n ISE=1.4n  
.MODEL DB_L1   D   (BV= {bv}, CJO ={cjo_ds},  TT ={trr}, IS ={ISE})
.MODEL NMOS_L3 NMOS (LEVEL=3,W={W},L={L},VTO={VTH},nsub={nsub},tox={tox},vmax={vmax},u0={uo})
R_RG         5 gi  {RG}  
S_S2         gcox cbias 0 vgcox S2
RS_S2        0 vgcox 1G
        .MODEL S2 VSWITCH Roff=1e6 Ron=100 Voff=-0.01 Von=0
S_S1         gi gcox 0 vgcox S1
RS_S1        0 vgcox 1G
        .MODEL S1 VSWITCH Roff=1e6 Ron=100 Voff=0 Von=-0.01
E_E5         vgcox 0 VALUE { -V(DCB)+V(Vdepl)+{VSW} }
R_RDUMMY         RDM RDP  1E12  
E_ABM11         Vdepl 0 VALUE { if (V(Vdg) >0.0, V(Vdg)   
+ +2*({Kgd}/{Cox})**2*(1-sqrt(1+(V(Vdg)/({Kgd}/{Cox})**2))),0)   }
E_ABM22         Vgox 0 VALUE { V(Vdg)-V(Vdepl)     }
D_D5         DSB DCB DB_L1 
R_RKLEIN         RDM RKP  .01m  
E_E6         cbias 0 VALUE { V(gi) }
R_R12         0 cbias  1E12  
M_X1         RDM gi DSB DSB NMOS_L3
R_R8         DSB gi  1E12  
C_C7         DSB gcox  {Cox}  
C_CGS1         DSB gi  {Cgs}  
R_RLKG         DSB gi  1E12  
V_VID         DCB RDP DC 0V AC 0V 
L_LD         DCB DRAIN  {LD}  
L_LS         SOURCE 7  {LS}  
R_RS         7 DSB  {RS}  
E_E4         RDP RKP VALUE { {alpha}*(V(RDM)-V(DSB))**2+I(V_VID)*
+ {RD}/(300/(TEMP+273))**1.5 }
L_LG         GATE 5  {LG}  
G_G4         RDM gi VALUE { if (time>50n, DDT({Cox}*V(Vgox, 0)),0) }
E_ABM21         Vdg 0 VALUE { V(RDM)-V(gi)+{alpha}*(V(RDM)-V(DSB))**2    }
.ENDS    BUZ110SL_L1

*n-MOSFET**Add_in_Line
.SUBCKT BUZ111S_L1 GATE DRAIN SOURCE
.PARAM   Cgs=0.921N Cox=6.15N Kgd=3.24N VSW=-1.61 cjo_ds=3.65n
.PARAM   W=4.204 L=1.025U VTH=3.68 alpha=0.5 RG=3 RD=4.17M RS=.6M LG=7N LD=5N LS=2N
.PARAM   nsub=1.03E17 tox=81E-9 uo=575 vmax=1.25E5 bv =62 trr=100n ISE=2.1n  
.MODEL DB_L1   D   (BV= {bv}, CJO ={cjo_ds},  TT ={trr}, IS ={ISE})
.MODEL NMOS_L3 NMOS (LEVEL=3,W={W},L={L},VTO={VTH},nsub={nsub},tox={tox},vmax={vmax},u0={uo})
R_RG         5 gi  {RG}  
S_S2         gcox cbias 0 vgcox S2
RS_S2        0 vgcox 1G
        .MODEL S2 VSWITCH Roff=1e6 Ron=100 Voff=-0.01 Von=0
S_S1         gi gcox 0 vgcox S1
RS_S1        0 vgcox 1G
        .MODEL S1 VSWITCH Roff=1e6 Ron=100 Voff=0 Von=-0.01
E_E5         vgcox 0 VALUE { -V(DCB)+V(Vdepl)+{VSW} }
R_RDUMMY         RDM RDP  1E12  
E_ABM11         Vdepl 0 VALUE { if (V(Vdg) >0.0, V(Vdg)   
+ +2*({Kgd}/{Cox})**2*(1-sqrt(1+(V(Vdg)/({Kgd}/{Cox})**2))),0)   }
E_ABM22         Vgox 0 VALUE { V(Vdg)-V(Vdepl)     }
D_D5         DSB DCB DB_L1 
R_RKLEIN         RDM RKP  .01m  
E_E6         cbias 0 VALUE { V(gi) }
R_R12         0 cbias  1E12  
M_X1         RDM gi DSB DSB NMOS_L3
R_R8         DSB gi  1E12  
C_C7         DSB gcox  {Cox}  
C_CGS1         DSB gi  {Cgs}  
R_RLKG         DSB gi  1E12  
V_VID         DCB RDP DC 0V AC 0V 
L_LD         DCB DRAIN  {LD}  
L_LS         SOURCE 7  {LS}  
R_RS         7 DSB  {RS}  
E_E4         RDP RKP VALUE { {alpha}*(V(RDM)-V(DSB))**2+I(V_VID)*
+ {RD}/(300/(TEMP+273))**1.5 }
L_LG         GATE 5  {LG}  
G_G4         RDM gi VALUE { if (time>50n, DDT({Cox}*V(Vgox, 0)),0) }
E_ABM21         Vdg 0 VALUE { V(RDM)-V(gi)+{alpha}*(V(RDM)-V(DSB))**2    }
.ENDS    BUZ111S_L1

*n-MOSFET**Add_in_Line
.SUBCKT BUZ111SL_L1 GATE DRAIN SOURCE
.PARAM   Cgs=0.745N Cox=9.061N Kgd=3.37N VSW=-1.61 cjo_ds=3.65N
.PARAM   W=4.210 L=1.025U VTH=2.29 alpha=0.5 RG=3 RD=3.48M RS=.6M LG=7N LD=5N LS=2N
.PARAM   nsub=9.7E16 tox=55E-9 uo=515 vmax=1.25E5 bv =62 trr=105n ISE=2.1n  
.MODEL DB_L1 D (BV= {bv},CJO ={cjo_ds},TT ={trr},IS ={ISE})
.MODEL NMOS_L3 NMOS (LEVEL=3,W={W},L={L},VTO={VTH},nsub={nsub},tox={tox},vmax={vmax},u0={uo})
R_RG         5 gi  {RG}  
S_S2         gcox cbias 0 vgcox S2
RS_S2        0 vgcox 1G
        .MODEL S2 VSWITCH Roff=1e6 Ron=100 Voff=-0.01 Von=0
S_S1         gi gcox 0 vgcox S1
RS_S1        0 vgcox 1G
        .MODEL S1 VSWITCH Roff=1e6 Ron=100 Voff=0 Von=-0.01
E_E5         vgcox 0 VALUE { -V(DCB)+V(Vdepl)+{VSW} }
R_RDUMMY         RDM RDP  1E12  
E_ABM11         Vdepl 0 VALUE { if (V(Vdg) >0.0, V(Vdg)   
+ +2*({Kgd}/{Cox})**2*(1-sqrt(1+(V(Vdg)/({Kgd}/{Cox})**2))),0)   }
E_ABM22         Vgox 0 VALUE { V(Vdg)-V(Vdepl)     }
D_D5         DSB DCB DB_L1 
R_RKLEIN         RDM RKP  .01m  
E_E6         cbias 0 VALUE { V(gi) }
R_R12         0 cbias  1E12  
M_X1         RDM gi DSB DSB NMOS_L3
R_R8         DSB gi  1E12  
C_C7         DSB gcox  {Cox}  
C_CGS1         DSB gi  {Cgs}  
R_RLKG         DSB gi  1E12  
V_VID         DCB RDP DC 0V AC 0V 
L_LD         DCB DRAIN  {LD}  
L_LS         SOURCE 7  {LS}  
R_RS         7 DSB  {RS}  
E_E4         RDP RKP VALUE { {alpha}*(V(RDM)-V(DSB))**2+I(V_VID)*
+ {RD}/(300/(TEMP+273))**1.5 }
L_LG         GATE 5  {LG}  
G_G4         RDM gi VALUE { if (time>50n, DDT({Cox}*V(Vgox, 0)),0) }
E_ABM21         Vdg 0 VALUE { V(RDM)-V(gi)+{alpha}*(V(RDM)-V(DSB))**2    }
.ENDS    BUZ111SL_L1

*n-MOSFET**Add_in_Line
.SUBCKT BSP320S_L1 GATE DRAIN SOURCE
.PARAM   Cgs=0.0732N Cox=0.493N Kgd=0.227N VSW=-1.61 cjo_ds=0.252n
.PARAM   W=0.314 L=1.025U VTH=3.68 alpha=0.5 RG=1.5 RD=63M RS=2M LG=7N LD=5N LS=7N
.PARAM   nsub=1.03E17 tox=81E-9 uo=575 vmax=1.25E5 bv =67 trr=50n ISE=.13n  
.MODEL DB_L1   D   (BV= {bv}, CJO ={cjo_ds},  TT ={trr}, IS ={ISE})
.MODEL NMOS_L3 NMOS (LEVEL=3,W={W},L={L},VTO={VTH},nsub={nsub},tox={tox},vmax={vmax},u0={uo})
R_RG         5 gi  {RG}  
S_S2         gcox cbias 0 vgcox S2
RS_S2        0 vgcox 1G
        .MODEL S2 VSWITCH Roff=1e6 Ron=100 Voff=-0.01 Von=0
S_S1         gi gcox 0 vgcox S1
RS_S1        0 vgcox 1G
        .MODEL S1 VSWITCH Roff=1e6 Ron=100 Voff=0 Von=-0.01
E_E5         vgcox 0 VALUE { -V(DCB)+V(Vdepl)+{VSW} }
R_RDUMMY         RDM RDP  1E12  
E_ABM11         Vdepl 0 VALUE { if (V(Vdg) >0.0, V(Vdg)   
+ +2*({Kgd}/{Cox})**2*(1-sqrt(1+(V(Vdg)/({Kgd}/{Cox})**2))),0)   }
E_ABM22         Vgox 0 VALUE { V(Vdg)-V(Vdepl)     }
D_D5         DSB DCB DB_L1 
R_RKLEIN         RDM RKP  .01m  
E_E6         cbias 0 VALUE { V(gi) }
R_R12         0 cbias  1E12  
M_X1         RDM gi DSB DSB NMOS_L3
R_R8         DSB gi  1E12  
C_C7         DSB gcox  {Cox}  
C_CGS1         DSB gi  {Cgs}  
R_RLKG         DSB gi  1E12  
V_VID         DCB RDP DC 0V AC 0V 
L_LD         DCB DRAIN  {LD}  
L_LS         SOURCE 7  {LS}  
R_RS         7 DSB  {RS}  
E_E4         RDP RKP VALUE { {alpha}*(V(RDM)-V(DSB))**2+I(V_VID)*
+ {RD}/(300/(TEMP+273))**1.5 }
L_LG         GATE 5  {LG}  
G_G4         RDM gi VALUE { if (time>50n, DDT({Cox}*V(Vgox, 0)),0) }
E_ABM21         Vdg 0 VALUE { V(RDM)-V(gi)+{alpha}*(V(RDM)-V(DSB))**2    }
.ENDS    BSP320S_L1

*n-MOSFET**Add_in_Line
.SUBCKT BSP318S_L1 GATE DRAIN SOURCE
.PARAM   Cgs=0.067N Cox=0.726N Kgd=0.257N VSW=-1.61 cjo_ds=0.246n
.PARAM   W=0.323 L=1.025U VTH=2.29 alpha=0.5 RG=1.5 RD=58M RS=2M LG=7N LD=5N LS=7N
.PARAM   nsub=9.7E16 tox=55E-9 uo=515 vmax=1.25E5 bv =67 trr=50n ISE=.13n  
.MODEL DB_L1   D   (BV= {bv}, CJO ={cjo_ds},  TT ={trr}, IS ={ISE})
.MODEL NMOS_L3 NMOS (LEVEL=3,W={W},L={L},VTO={VTH},nsub={nsub},tox={tox},vmax={vmax},u0={uo})
R_RG         5 gi  {RG}  
S_S2         gcox cbias 0 vgcox S2
RS_S2        0 vgcox 1G
        .MODEL S2 VSWITCH Roff=1e6 Ron=100 Voff=-0.01 Von=0
S_S1         gi gcox 0 vgcox S1
RS_S1        0 vgcox 1G
        .MODEL S1 VSWITCH Roff=1e6 Ron=100 Voff=0 Von=-0.01
E_E5         vgcox 0 VALUE { -V(DCB)+V(Vdepl)+{VSW} }
R_RDUMMY         RDM RDP  1E12  
E_ABM11         Vdepl 0 VALUE { if (V(Vdg) >0.0, V(Vdg)   
+ +2*({Kgd}/{Cox})**2*(1-sqrt(1+(V(Vdg)/({Kgd}/{Cox})**2))),0)   }
E_ABM22         Vgox 0 VALUE { V(Vdg)-V(Vdepl)     }
D_D5         DSB DCB DB_L1 
R_RKLEIN         RDM RKP  .01m  
E_E6         cbias 0 VALUE { V(gi) }
R_R12         0 cbias  1E12  
M_X1         RDM gi DSB DSB NMOS_L3
R_R8         DSB gi  1E12  
C_C7         DSB gcox  {Cox}  
C_CGS1         DSB gi  {Cgs}  
R_RLKG         DSB gi  1E12  
V_VID         DCB RDP DC 0V AC 0V 
L_LD         DCB DRAIN  {LD}  
L_LS         SOURCE 7  {LS}  
R_RS         7 DSB  {RS}  
E_E4         RDP RKP VALUE { {alpha}*(V(RDM)-V(DSB))**2+I(V_VID)*
+ {RD}/(300/(TEMP+273))**1.5 }
L_LG         GATE 5  {LG}  
G_G4         RDM gi VALUE { if (time>50n, DDT({Cox}*V(Vgox, 0)),0) }
E_ABM21         Vdg 0 VALUE { V(RDM)-V(gi)+{alpha}*(V(RDM)-V(DSB))**2    }
.ENDS    BSP318S_L1
