****************************************
* (c)1999 Thomatronik GmbH             *
*   info@thomatronik.de                *
*                                      *
* Author: Arpad Buermen                *
*   Arpad.Burmen@ieee.org              *
****************************************

.MODEL EGF1D D (
+   N=2.30239
+  IS=3.86441E-007
+  RS=0.0294125
+  EG=1.20997
+ XTI=3.07825
+ CJO=7.36864E-011
+  VJ=0.0856305
+   M=0.288789
+  FC=0.5
+  TT=1.23315E-007
+  BV=200
+ IBV=0.01
+  KF=0
+  AF=1 )
