****************************************
* (c)1999 Thomatronik GmbH             *
*   info@thomatronik.de                *
*                                      *
* Author: Arpad Buermen                *
*   Arpad.Burmen@ieee.org              *
****************************************

.MODEL EGP10D D (
+   N=2.30708
+  IS=4.15009E-007
+  RS=0.0297609
+  EG=1.20561
+ XTI=3.07814
+ CJO=4.87901E-011
+  VJ=0.25
+   M=0.264468
+  FC=0.5
+  TT=1.23315E-007
+  BV=200
+ IBV=0.01
+  KF=0
+  AF=1 )
