****************************************
* (c)1999 Thomatronik GmbH             *
*   info@thomatronik.de                *
*                                      *
* Author: Arpad Buermen                *
*   Arpad.Burmen@ieee.org              *
****************************************

.MODEL EGP10G D (
+   N=2.84496
+  IS=1.10917E-006
+  RS=0.044804
+  EG=1.44517
+ XTI=3.12357
+ CJO=2.70007E-011
+  VJ=0.588783
+   M=0.246194
+  FC=0.5
+  TT=1.23315E-007
+  BV=400
+ IBV=0.02
+  KF=0
+  AF=1 )
