****************************************
* (c)1999 Thomatronik GmbH             *
*   info@thomatronik.de                *
*                                      *
* Author: Arpad Buermen                *
*   Arpad.Burmen@ieee.org              *
****************************************

.MODEL EGP50D D (
+   N=1.74351
+  IS=5.95174E-008
+  RS=0.0104058
+  EG=1.15143
+ XTI=3.06295
+ CJO=2.29062E-010
+  VJ=0.271102
+   M=0.303883
+  FC=0.5
+  TT=1.23315E-007
+  BV=200
+ IBV=0.001
+  KF=0
+  AF=1 )
