****************************************
* (c)1999 Thomatronik GmbH             *
*   info@thomatronik.de                *
*                                      *
* Author: Arpad Buermen                *
*   Arpad.Burmen@ieee.org              *
****************************************

.MODEL EGP50G D (
+   N=2.9566
+  IS=4.19093E-006
+  RS=0.0114706
+  EG=1.52586
+ XTI=3.14952
+ CJO=1.58733E-010
+  VJ=1.44534
+   M=0.454334
+  FC=0.5
+  TT=1.23315E-007
+  BV=400
+ IBV=0.1
+  KF=0
+  AF=1 )
