**************************************
*      Model Generated by MODPEX     *
*Copyright(c) Symmetry Design Systems*
*         All Rights Reserved        *
*    UNPUBLISHED LICENSED SOFTWARE   *
*   Contains Proprietary Information *
*      Which is The Property of      *
*     SYMMETRY OR ITS LICENSORS      *
*Commercial Use or Resale Restricted *
*   by Symmetry License Agreement    *
**************************************
* Model generated on Jul 14, 99
* MODEL FORMAT: PSpice
.MODEL Dfe1d d
+IS=3.08024e-07 RS=0.049708 N=2 EG=0.6
+XTI=0.5 BV=250 IBV=1e-06 CJO=8.30642e-11
+VJ=1.48275 M=0.520618 FC=0.5 TT=5.1785e-08
+KF=0 AF=1
