****************************************
* (c)1999 Thomatronik GmbH             *
*   info@thomatronik.de                *
*                                      *
* Author: Arpad Buermen                *
*   Arpad.Burmen@ieee.org              *
****************************************

.MODEL UF4007 D (
+   N=3.97671
+  IS=3.28772E-006
+  RS=0.149734
+  EG=1.11
+ XTI=3
+ CJO=2.92655E-011
+  VJ=0.851862
+   M=0.334552
+  FC=0.5
+  TT=1.84973E-007
+  BV=1000
+ IBV=0.2
+  KF=0
+  AF=1 )
