****************************************
* (c)1999 Thomatronik GmbH             *
*   info@thomatronik.de                *
*                                      *
* Author: Arpad Buermen                *
*   Arpad.Burmen@ieee.org              *
****************************************

.MODEL UG06D D (
+   N=2.87183
+  IS=4.80626E-006
+  RS=0.00650087
+  EG=1.71605
+ XTI=3.14007
+ CJO=1.26572E-011
+  VJ=0.2
+   M=0.0698141
+  FC=0.5
+  TT=3.69946E-008
+  BV=200
+ IBV=0.1
+  KF=0
+  AF=1 )
