**************************************
*      Model Generated by MODPEX     *
*Copyright(c) Symmetry Design Systems*
*         All Rights Reserved        *
*    UNPUBLISHED LICENSED SOFTWARE   *
*   Contains Proprietary Information *
*      Which is The Property of      *
*     SYMMETRY OR ITS LICENSORS      *
*Commercial Use or Resale Restricted *
*   by Symmetry License Agreement    *
**************************************
* Model generated on Jul 21, 99
* MODEL FORMAT: PSpice
.MODEL Dug10dct d
+IS=8.13876e-08 RS=0.0244057 N=1.72178 EG=1.21207
+XTI=1.2 BV=240 IBV=0.0001 CJO=1.60575e-11
+VJ=2 M=0.1 FC=0.5 TT=3.32951e-08
+KF=0 AF=1

