
**************************************
*      Model Generated by MODPEX     *
*Copyright(c) Symmetry Design Systems*
*         All Rights Reserved        *
*    UNPUBLISHED LICENSED SOFTWARE   *
*   Contains Proprietary Information *
*      Which is The Property of      *
*     SYMMETRY OR ITS LICENSORS      *
*Commercial Use or Resale Restricted *
*   by Symmetry License Agreement    *
*    D45VH10 - PNP - BJT    *
**************************************
* Model generated on Jun 24, 97
* MODEL FORMAT: PSpice
.MODEL Qd45vh10 pnp
+IS=8.50718e-12 BF=200.01 NF=1.06811 VAF=10.2194
+IKF=6.33305 ISE=2.5001e-12 NE=3.56249 BR=2.95206
+NR=1.16818 VAR=2.62097 IKR=9.36964 ISC=3.25e-13
+NC=3.875 RB=1.55035 IRB=0.158801 RBM=0.0572049
+RE=0.000100003 RC=0.0614871 XTB=0.102787 XTI=1.15727
+EG=1.16099 CJE=1.67102e-09 VJE=0.598265 MJE=0.403808
+TF=8.85309e-10 XTF=1000 VTF=44149.2 ITF=330.519
+CJC=6.74051e-10 VJC=0.337912 MJC=0.369008 XCJC=1
+FC=0.989315 CJS=0 VJS=0.75 MJS=0.5
+TR=2.65932e-07 PTF=0 KF=0 AF=1

