**************************************
*      Model Generated by MODPEX     *
*Copyright(c) Symmetry Design Systems*
*         All Rights Reserved        *
*    UNPUBLISHED LICENSED SOFTWARE   *
*   Contains Proprietary Information *
*      mj15002 PNP bjt      *
*     SYMMETRY OR ITS LICENSORS      *
*Commercial Use or Resale Restricted *
*   by Symmetry License Agreement    *
**************************************
* Model generated on Jul 29, 97
* MODEL FORMAT: PSpice
.MODEL Qmj15002 pnp
+IS=5.9955e-12 BF=1255.86 NF=0.989791 VAF=10
+IKF=0.142606 ISE=1e-08 NE=2.01784 BR=9.03224
+NR=1.5 VAR=100 IKR=0.00777049 ISC=1e-08
+NC=1.68621 RB=3.45026 IRB=0.1 RBM=0.333146
+RE=0.012422 RC=0.0621099 XTB=0.1 XTI=1
+EG=1.05 CJE=7.68242e-10 VJE=0.4 MJE=0.389835
+TF=3.59815e-09 XTF=1000 VTF=1.16654 ITF=0.00860153
+CJC=5.08874e-10 VJC=0.95 MJC=0.415655 XCJC=0.1
+FC=0.467765 CJS=0 VJS=0.75 MJS=0.5
+TR=1e-07 PTF=0 KF=0 AF=1
