**************************************
*      Model Generated by MODPEX     *
*Copyright(c) Symmetry Design Systems*
*         All Rights Reserved        *
*    UNPUBLISHED LICENSED SOFTWARE   *
*   Contains Proprietary Information *
*      mj15023 pnp  bjt      *
*     SYMMETRY OR ITS LICENSORS      *
*Commercial Use or Resale Restricted *
*   by Symmetry License Agreement    *
**************************************
* Model generated on Jul 29, 97
* MODEL FORMAT: PSpice
.MODEL Qmj15023 pnp
+IS=2.16e-14 BF=69.6949 NF=0.903189 VAF=10
+IKF=2.67992 ISE=1.6609e-12 NE=2.30046 BR=0.1
+NR=1.05741 VAR=100 IKR=1.06678 ISC=1.56893e-12
+NC=2.81239 RB=1.9712 IRB=3.62359 RBM=1.9712
+RE=0.0001 RC=0.0667376 XTB=1.34239 XTI=1
+EG=1.05 CJE=8.04822e-09 VJE=0.4 MJE=0.497304
+TF=1e-08 XTF=1000 VTF=1.06505 ITF=0.425519
+CJC=5e-10 VJC=0.95 MJC=0.23 XCJC=0.1
+FC=0.8 CJS=0 VJS=0.75 MJS=0.5
+TR=1e-07 PTF=0 KF=0 AF=1

