**************************************
*      Model Generated by MODPEX     *
*Copyright(c) Symmetry Design Systems*
*         All Rights Reserved        *
*    UNPUBLISHED LICENSED SOFTWARE   *
*   Contains Proprietary Information *
*      mj15001 NPN BJT      *
*     SYMMETRY OR ITS LICENSORS      *
*Commercial Use or Resale Restricted *
*   by Symmetry License Agreement    *
**************************************
* Model generated on Jul 29, 97
* MODEL FORMAT: PSpice
.MODEL Qmj15001 npn
+IS=1.23312e-13 BF=115.914 NF=0.85 VAF=10
+IKF=1.263 ISE=6.43082e-13 NE=1.59704 BR=4.58573
+NR=0.930118 VAR=99.9721 IKR=1.20463 ISC=6.28301e-13
+NC=2.79011 RB=2.81251 IRB=0.1 RBM=0.1
+RE=0.0218983 RC=0.109491 XTB=0.1 XTI=1
+EG=1.206 CJE=1.33292e-09 VJE=0.40062 MJE=0.385557
+TF=9.99606e-09 XTF=179.464 VTF=1.74347 ITF=0.001
+CJC=5e-10 VJC=0.95 MJC=0.85 XCJC=0.797142
+FC=0.10001 CJS=0 VJS=0.75 MJS=0.5
+TR=1e-07 PTF=0 KF=0 AF=1

