**************************************
*      Model Generated by MODPEX     *
*Copyright(c) Symmetry Design Systems*
*         All Rights Reserved        *
*    UNPUBLISHED LICENSED SOFTWARE   *
*   Contains Proprietary Information *
*        mj15022  npn bjt         *
*     SYMMETRY OR ITS LICENSORS      *
*Commercial Use or Resale Restricted *
*   by Symmetry License Agreement    *
**************************************
* Model generated on Jul 28, 97
* MODEL FORMAT: PSpice
.MODEL Qmj15022 npn
+IS=1.24935e-14 BF=96.3779 NF=0.85 VAF=48.1022
+IKF=3.90374 ISE=7.37535e-11 NE=2.44613 BR=0.1
+NR=0.874229 VAR=311.961 IKR=10 ISC=4.00026e-11
+NC=2.90623 RB=1.98906 IRB=0.1 RBM=0.1
+RE=0.0001 RC=0.0630429 XTB=0.676723 XTI=1.23042
+EG=1.206 CJE=7.95824e-09 VJE=0.4 MJE=0.597812
+TF=1e-08 XTF=1000 VTF=1.06995 ITF=0.741799
+CJC=5e-10 VJC=0.95 MJC=0.335098 XCJC=0.1
+FC=0.8 CJS=0 VJS=0.75 MJS=0.5
+TR=1e-07 PTF=0 KF=0 AF=1

