.SUBCKT mjd112 1 2 3
**************************************
*      Model Generated by MODPEX     *
*Copyright(c) Symmetry Design Systems*
*         All Rights Reserved        *
*    UNPUBLISHED LICENSED SOFTWARE   *
*   Contains Proprietary Information *
*      Which is The Property of      *
*     SYMMETRY OR ITS LICENSORS      *
*Commercial Use or Resale Restricted *
*   by Symmetry License Agreement    *
**************************************
* Model generated on Apr 24, 98
* MODEL FORMAT: SPICE3
* Darlington macro model
* External node designations
* Node 1 -> Collect
* Node 2 -> Base
* Node 3 -> Emitter
Q1 1 2 4 qmodel
Q2 1 4 3 q1model area=1
D1 3 1 dmodel
R1 2 4 8000
R2 4 3 120
* Default values used in dmodel
*   EG=1.11 TT=0 BV=infinite
.MODEL dmodel d
+IS=1e-12 RS=0 N=0.5 XTI=1.71388
+CJO=0 VJ=0.75 M=0.33 FC=0.5
.MODEL qmodel npn
+IS=9.90724e-12 BF=160.931 NF=1.2 VAF=80.9837
+IKF=0.274878 ISE=3.41208e-15 NE=1.53238 BR=0.1
+NR=1.29369 VAR=809.837 IKR=2.90636e-05 ISC=3.40588e-15
+NC=1.00155 RB=0.27125 IRB=0.1 RBM=0.27125
+RE=0.000106145 RC=0.00101997 XTB=0 XTI=4 EG=1.1808
+CJE=1e-11 VJE=0.75 MJE=0.33 TF=1e-09
+XTF=1 VTF=10 ITF=0.01 CJC=1e-11
+VJC=0.75 MJC=0.33 XCJC=0.9 FC=0.5
+TR=1e-07 PTF=0 KF=0 AF=1
.MODEL q1model npn
+IS=9.90724e-12 BF=160.931 NF=1.2 VAF=80.9837
+IKF=0.274878 ISE=3.41208e-15 NE=1.53238 BR=0.1
+NR=1.29369 VAR=809.837 IKR=2.90636e-05 ISC=3.40588e-15
+NC=1.00155 RB=0.27125 IRB=0.1 RBM=0.27125
+RE=0.000106145 RC=0.00101997 XTB=0 XTI=4 EG=1.1808
+CJE=1e-11 VJE=0.75 MJE=0.33 TF=1e-09
+XTF=1 VTF=10 ITF=0.01 CJC=0
+VJC=0.75 MJC=0.33 XCJC=0.9 FC=0.5
+TR=1e-07 PTF=0 KF=0 AF=1
.ENDS mjd112
