**************************************
*      Model Generated by MODPEX     *
*Copyright(c) Symmetry Design Systems*
*         All Rights Reserved        *
*    UNPUBLISHED LICENSED SOFTWARE   *
*   Contains Proprietary Information *
*      Which is The Property of      *
*     SYMMETRY OR ITS LICENSORS      *
*Commercial Use or Resale Restricted *
*   by Symmetry License Agreement  *
*    MJD200,   bjt       *
**************************************
* Model generated on May 27, 97
* MODEL FORMAT: PSpice
.MODEL Qmjd200 npn
+IS=9.96436e-11 BF=197.751 NF=1.24346 VAF=22.3193
+IKF=5.50653 ISE=7.74716e-12 NE=3.31492 BR=3.68757
+NR=1.32038 VAR=3.35876 IKR=5.08705 ISC=3.25e-13
+NC=3.93941 RB=8.9549 IRB=0.1 RBM=0.1
+RE=0.000700706 RC=0.194498 XTB=0.1 XTI=1
+EG=1.05 CJE=1.53677e-10 VJE=0.99 MJE=0.358032
+TF=1.43687e-09 XTF=1.18262 VTF=11.1525 ITF=0.00990802
+CJC=1.05962e-10 VJC=0.4 MJC=0.299303 XCJC=0.8
+FC=0.556642 CJS=0 VJS=0.75 MJS=0.5
+TR=1.26237e-07 PTF=0 KF=0 AF=1

