**************************************
*      Model Generated by MODPEX     *
*Copyright(c) Symmetry Design Systems*
*         All Rights Reserved        *
*    UNPUBLISHED LICENSED SOFTWARE   *
*   Contains Proprietary Information *
*      Which is The Property of      *
*     SYMMETRY OR ITS LICENSORS      *
*Commercial Use or Resale Restricted *
*   by Symmetry License Agreement    *
**************************************
* Model generated on Jan  7, 98
* MODEL FORMAT: PSpice
.MODEL Qmjl1302a pnp
+IS=5.35257e-14 BF=10000 NF=0.85 VAF=29.806
+IKF=1 ISE=6.75503e-13 NE=1.13462 BR=0.1
+NR=0.75 VAR=298.06 IKR=10 ISC=1e-16
+NC=3.31217 RB=1.9617 IRB=0.1 RBM=1.9617
+RE=0.0001 RC=0.185509 XTB=0.1 XTI=1
+EG=1.05 CJE=1e-07 VJE=0.4 MJE=0.491105
+TF=6.44974e-10 XTF=1000 VTF=2.05556 ITF=279.371
+CJC=5e-10 VJC=0.400004 MJC=0.23 XCJC=1
+FC=0.1 CJS=0 VJS=0.75 MJS=0.5
+TR=1e-07 PTF=0 KF=0 AF=1
