**************************************
*      Model Generated by MODPEX     *
*Copyright(c) Symmetry Design Systems*
*         All Rights Reserved        *
*    UNPUBLISHED LICENSED SOFTWARE   *
*   Contains Proprietary Information *
*      mjl21194  npn  bjt   *
*     SYMMETRY OR ITS LICENSORS      *
*Commercial Use or Resale Restricted *
*   by Symmetry License Agreement    *
**************************************
* Model generated on Jul 29, 97
* MODEL FORMAT: PSpice
.MODEL Qmjl21194 npn
+IS=5.47293e-11 BF=41.975 NF=1.09031 VAF=34.2662
+IKF=9.80375 ISE=8.29283e-12 NE=3.34198 BR=2.55513
+NR=1.18905 VAR=3.07754 IKR=10 ISC=6.74104e-13
+NC=3.80328 RB=3.47951 IRB=0.1 RBM=0.1
+RE=0.000192264 RC=0.0350697 XTB=1.60274 XTI=1.19488
+EG=1.206 CJE=6.77437e-08 VJE=0.797955 MJE=0.463082
+TF=1e-08 XTF=4.96962 VTF=19630.7 ITF=4.65938
+CJC=4.49735e-10 VJC=0.95 MJC=0.321786 XCJC=0.1
+FC=0.8 CJS=0 VJS=0.75 MJS=0.5
+TR=1e-07 PTF=0 KF=0 AF=1
