**************************************
*      Model Generated by MODPEX     *
*Copyright(c) Symmetry Design Systems*
*         All Rights Reserved        *
*    UNPUBLISHED LICENSED SOFTWARE   *
*   Contains Proprietary Information *
*      mjl21193  npn  bjt        *
*     SYMMETRY OR ITS LICENSORS      *
*Commercial Use or Resale Restricted *
*   by Symmetry License Agreement    *
**************************************
* Model generated on Jul 29, 97
* MODEL FORMAT: PSpice
.MODEL Qmjl21193 pnp
+IS=2.30346e-11 BF=69.3372 NF=0.993515 VAF=58.7322
+IKF=4.47546 ISE=7.74993e-12 NE=3.34375 BR=4.94313
+NR=1.14498 VAR=3.3937 IKR=6.72596 ISC=3.25e-13
+NC=4 RB=5.82696 IRB=1.11836 RBM=1.06425
+RE=0.000664793 RC=0.0604505 XTB=1.00207 XTI=1.0259
+EG=1.10103 CJE=9.03315e-08 VJE=0.757914 MJE=0.530058
+TF=1e-08 XTF=3.18625 VTF=14.2809 ITF=2.73109
+CJC=1.44806e-09 VJC=0.4 MJC=0.35533 XCJC=0.1
+FC=0.8 CJS=0 VJS=0.75 MJS=0.5
+TR=1e-07 PTF=0 KF=0 AF=1
