**************************************
*      Model Generated by MODPEX     *
*Copyright(c) Symmetry Design Systems*
*         All Rights Reserved        *
*    UNPUBLISHED LICENSED SOFTWARE   *
*   Contains Proprietary Information *
*      Which is The Property of      *
*     SYMMETRY OR ITS LICENSORS      *
*Commercial Use or Resale Restricted *
*   by Symmetry License Agreement    *
**************************************
* Model generated on Mar 24, 98
* MODEL FORMAT: SPICE3
.MODEL mmdj3p03bjt pnp
+IS=3.316e-11 BF=400.212 NF=1.14819 VAF=26.632
+IKF=5.66333 ISE=7.74837e-12 NE=3.34404 BR=4.3446
+NR=1.19617 VAR=2.5202 IKR=4.46362 ISC=2.5e-13
+NC=4 RB=9.05473 IRB=0.1 RBM=0.1
+RE=0.000664561 RC=0.133658 XTB=0.393698 XTI=1
+EG=1.05 CJE=2.47161e-09 VJE=0.472448 MJE=0.425946
+TF=5.90089e-10 XTF=15.9663 VTF=15.1707 ITF=9.02361
+CJC=3.44025e-10 VJC=0.4 MJC=0.375416 XCJC=0.800001
+FC=0.853142 CJS=0 VJS=0.75 MJS=0.5
+TR=1e-07 PTF=0 KF=0 AF=1

