**************************************
*      Model Generated by MODPEX     *
*Copyright(c) Symmetry Design Systems*
*         All Rights Reserved        *
*    UNPUBLISHED LICENSED SOFTWARE   *
*   Contains Proprietary Information *
*      Which is The Property of      *
*     SYMMETRY OR ITS LICENSORS      *
*Commercial Use or Resale Restricted *
*   by Symmetry License Agreement    *
**************************************
* Model generated on May 27, 98
* MODEL FORMAT: SPICE3
.MODEL mmjt9410 npn
+IS=2.35983e-11 BF=213.703 NF=1.10636 VAF=28.137
+IKF=9.99997 ISE=6.24999e-12 NE=3.40625 BR=5.53657
+NR=1.14744 VAR=7.69331 IKR=9.92901 ISC=2.5e-13
+NC=4 RB=7.90901 IRB=0.1 RBM=0.1
+RE=0.000523998 RC=0.0836482 XTB=0.100794 XTI=1.06462
+EG=1.19548 CJE=5.87892e-09 VJE=0.614933 MJE=0.85
+TF=1.17165e-09 XTF=1000 VTF=352.971 ITF=270.597
+CJC=2.37425e-10 VJC=0.95 MJC=0.415065 XCJC=0.791024
+FC=0.8 CJS=0 VJS=0.75 MJS=0.5
+TR=1e-07 PTF=0 KF=0 AF=1

