**************************************
*      Model Generated by MODPEX     *
*Copyright(c) Symmetry Design Systems*
*         All Rights Reserved        *
*    UNPUBLISHED LICENSED SOFTWARE   *
*   Contains Proprietary Information *
*      TIP31C   NPN, bjt     *
*     SYMMETRY OR ITS LICENSORS      *
*Commercial Use or Resale Restricted *
*   by Symmetry License Agreement    *
**************************************
* Model generated on Jul 29, 97
* MODEL FORMAT: PSpice
.MODEL Qtip31c npn
+IS=9.19839e-10 BF=250.29 NF=1.31842 VAF=10
+IKF=1 ISE=4.03997e-12 NE=1.58322 BR=8.46109
+NR=1.31301 VAR=3.24511 IKR=10 ISC=6.24955e-13
+NC=3.90627 RB=5.04225 IRB=0.1 RBM=0.1
+RE=0.032857 RC=0.164285 XTB=0.1 XTI=1
+EG=1.05 CJE=3.22574e-10 VJE=0.606555 MJE=0.541469
+TF=1e-08 XTF=7.90432 VTF=10.4888 ITF=0.00100001
+CJC=3.09833e-10 VJC=0.735177 MJC=0.469501 XCJC=0.799758
+FC=0.8 CJS=0 VJS=0.75 MJS=0.5
+TR=2.59407e-07 PTF=0 KF=0 AF=1
